data_image0
_chemical_formula_structural       Si5Al3Fe2CaO16
_chemical_formula_sum              "Si5 Al3 Fe2 Ca1 O16"
_cell_length_a       10.32280115456367
_cell_length_b       10.32280115456367
_cell_length_c       10.32280115456367
_cell_angle_alpha    90.0
_cell_angle_beta     90.0
_cell_angle_gamma    90.0

_space_group_name_H-M_alt    "P 1"
_space_group_IT_number       1

loop_
  _space_group_symop_operation_xyz
  'x, y, z'

loop_
  _atom_site_type_symbol
  _atom_site_label
  _atom_site_symmetry_multiplicity
  _atom_site_fract_x
  _atom_site_fract_y
  _atom_site_fract_z
  _atom_site_occupancy
  Si  Si1       1.0  0.8162699944334939  0.6413398305109302  0.4569698509654757  1.0000
  Si  Si2       1.0  0.03864334480115466  0.5585356164437291  0.6150763963548891  1.0000
  Si  Si3       1.0  0.36072343348647795  0.5865476658162342  0.2666982574243796  1.0000
  Si  Si4       1.0  0.801155525748956  0.3971712544284613  0.6194689901197733  1.0000
  Si  Si5       1.0  0.6852463530067225  0.32238992087435997  0.19743857970145004  1.0000
  Al  Al1       1.0  0.152729373391022  0.5805980924091875  0.38751713561688406  1.0000
  Al  Al2       1.0  0.5732330398378425  0.4228598165671319  0.44219335320961667  1.0000
  Al  Al3       1.0  0.5489578752772379  0.4735433466375929  0.7461038358188942  1.0000
  Fe  Fe1       1.0  0.7049299747045427  0.6785352754998394  0.759555642604795  1.0000
  Fe  Fe2       1.0  0.5651152989915789  0.5609009559330005  0.026383636522126393  1.0000
  Ca  Ca1       1.0  0.3861422009574805  0.6251825121759784  0.5564266072532779  1.0000
  O   O1        1.0  0.2817903434807677  0.6985390531419303  0.3634722585445351  1.0000
  O   O2        1.0  0.2349384662275237  0.4829258353795407  0.27344262774066225  1.0000
  O   O3        1.0  0.18381111056274455  0.5289516943277065  0.554353607918427  1.0000
  O   O4        1.0  0.7276540531749764  0.4692409484943204  0.7394796669523206  1.0000
  O   O5        1.0  0.985078670639018  0.601159005890079  0.4508507573640531  1.0000
  O   O6        1.0  0.9580256792692396  0.41927446542855823  0.633696287734577  1.0000
  O   O7        1.0  0.7507271176551792  0.480612744940514  0.4833520315573527  1.0000
  O   O8        1.0  0.6808644744262244  0.6747555665649765  0.9329477761372157  1.0000
  O   O9        1.0  0.5003911466360583  0.40857522725611545  0.594334840107507  1.0000
  O   O10       1.0  0.5332124332803471  0.6437897832556522  0.7032858584891201  1.0000
  O   O11       1.0  0.6152270731974119  0.29826883759335  0.33675600403476336  1.0000
  O   O12       1.0  0.7993714171800569  0.7116785642276008  0.5976887418222824  1.0000
  O   O13       1.0  0.47845780200350474  0.5447091805923711  0.3714379264328602  1.0000
  O   O14       1.0  0.42304963649526384  0.6239763759784784  0.13080583618095692  1.0000
  O   O15       1.0  0.5019646614058714  0.44358914141904726  0.9025579742869237  1.0000
  O   O16       1.0  0.6767646717480377  0.4668483240134268  0.1452841079115301  1.0000
