data_image0
_chemical_formula_structural       Ca8Si4O16
_chemical_formula_sum              "Ca8 Si4 O16"
_cell_length_a       10.96
_cell_length_b       13.52
_cell_length_c       9.28
_cell_angle_alpha    90.0
_cell_angle_beta     94.6
_cell_angle_gamma    90.0

_space_group_name_H-M_alt    "P 1"
_space_group_IT_number       1

loop_
  _space_group_symop_operation_xyz
  'x, y, z'

loop_
  _atom_site_type_symbol
  _atom_site_label
  _atom_site_symmetry_multiplicity
  _atom_site_fract_x
  _atom_site_fract_y
  _atom_site_fract_z
  _atom_site_occupancy
  Ca  Ca1       1.0  0.3069944829374706  0.09733587230918814  0.12133589137346686  1.0000
  Ca  Ca2       1.0  0.306997971495125  0.5973451296217137  0.12133611107650054  1.0000
  Ca  Ca3       1.0  0.806989790266072  0.09734716201628704  0.12133863447578205  1.0000
  Ca  Ca4       1.0  0.8069937624325438  0.5973563343263927  0.1213261770021587  1.0000
  Ca  Ca5       1.0  0.24050858843383083  0.43500943813540954  0.9107187721433696  1.0000
  Ca  Ca6       1.0  0.24050616741463018  0.9350086287829883  0.9106884974226176  1.0000
  Ca  Ca7       1.0  0.7405133625957272  0.4349977785521878  0.9107303381602921  1.0000
  Ca  Ca8       1.0  0.7405183655904093  0.9350011882403633  0.9106989848586606  1.0000
  Si  Si1       1.0  0.9944148920597651  0.992131010671416  0.992396426854693  1.0000
  Si  Si2       1.0  0.9944136195409122  0.4921344263793468  0.992385395853135  1.0000
  Si  Si3       1.0  0.4944197427177039  0.9921153964862319  0.9924039495162238  1.0000
  Si  Si4       1.0  0.4944205509264793  0.4921210040634307  0.9924015328082165  1.0000
  O   O1        1.0  0.127105004500789  0.04452244247690032  0.05866556524445682  1.0000
  O   O2        1.0  0.12710505059405644  0.5445168285493294  0.0586792259856558  1.0000
  O   O3        1.0  0.6270971173012542  0.044536957037957216  0.05865449092548792  1.0000
  O   O4        1.0  0.6270907978217004  0.5445466627292159  0.0586656705101762  1.0000
  O   O5        1.0  0.3996562918062951  0.4513257000369211  0.11395962620523423  1.0000
  O   O6        1.0  0.39965801754748037  0.9513174991249335  0.11396155230930977  1.0000
  O   O7        1.0  0.8996269183133894  0.45132236715349533  0.11390705918824302  1.0000
  O   O8        1.0  0.8996489640075471  0.9513239538926699  0.11394015385785988  1.0000
  O   O9        1.0  0.04143426137207806  0.40656886045643076  0.886093697357631  1.0000
  O   O10       1.0  0.041427033333181054  0.9065648331384415  0.8860998412562228  1.0000
  O   O11       1.0  0.541446367099034  0.406551717211785  0.886121250593824  1.0000
  O   O12       1.0  0.5414417099039593  0.9065508707637585  0.8861134704634398  1.0000
  O   O13       1.0  0.3898855692400706  0.07309501005836715  0.9168459337489541  1.0000
  O   O14       1.0  0.389887588036372  0.5730958193529  0.9168386603761854  1.0000
  O   O15       1.0  0.8898950983877805  0.07312507368561376  0.916853838409348  1.0000
  O   O16       1.0  0.8899030286964247  0.5731319099768867  0.916839321184738  1.0000
