data_image0
_chemical_formula_structural       Ca9Si3O15
_chemical_formula_sum              "Ca9 Si3 O15"
_cell_length_a       9.52731232580784
_cell_length_b       9.52731232580784
_cell_length_c       9.527313081619603
_cell_angle_alpha    43.687609114575814
_cell_angle_beta     43.687609114575814
_cell_angle_gamma    43.68760434092465

_space_group_name_H-M_alt    "P 1"
_space_group_IT_number       1

loop_
  _space_group_symop_operation_xyz
  'x, y, z'

loop_
  _atom_site_type_symbol
  _atom_site_label
  _atom_site_symmetry_multiplicity
  _atom_site_fract_x
  _atom_site_fract_y
  _atom_site_fract_z
  _atom_site_occupancy
  Ca  Ca1       1.0  0.262430449710032  0.7869602070886452  0.26243035346028243  1.0000
  Ca  Ca2       1.0  0.2624304569445498  0.2624305017875126  0.7869601349673448  1.0000
  Ca  Ca3       1.0  0.7869601778785893  0.26243049119791034  0.2624303502109468  1.0000
  Ca  Ca4       1.0  0.05890837903327377  0.5301031536529266  0.0589084246349089  1.0000
  Ca  Ca5       1.0  0.05890837333087118  0.058908391142142816  0.5301032345319608  1.0000
  Ca  Ca6       1.0  0.5301031762665249  0.05890840012747696  0.058908397709882265  1.0000
  Ca  Ca7       1.0  0.4942595459981093  0.020036514891201927  0.4942594665226541  1.0000
  Ca  Ca8       1.0  0.49425956179806396  0.4942594861470492  0.02003660641940501  1.0000
  Ca  Ca9       1.0  0.020036573973896344  0.49425953184173366  0.4942595119195125  1.0000
  Si  Si1       1.0  0.7678797778393598  0.7678797649861927  0.767879844984877  1.0000
  Si  Si2       1.0  0.5554262123697744  0.5554261960050871  0.5554262702146885  1.0000
  Si  Si3       1.0  0.9891146550531528  0.9891139615629422  0.9891159039915144  1.0000
  O   O1        1.0  0.13582493865093329  0.7536204326052361  0.13582502063280152  1.0000
  O   O2        1.0  0.13582340388039882  0.13582313864852602  0.7536225739323014  1.0000
  O   O3        1.0  0.7536207020395065  0.13582458081110863  0.13582491892991913  1.0000
  O   O4        1.0  0.40715268139287925  0.7847755211568038  0.40715269975477986  1.0000
  O   O5        1.0  0.40715266267420896  0.40715266111519416  0.7847755577022696  1.0000
  O   O6        1.0  0.7847755113283299  0.4071527065819114  0.4071527146795892  1.0000
  O   O7        1.0  0.8696456717150902  0.4948367563187912  0.869645394832182  1.0000
  O   O8        1.0  0.8696454678523322  0.8696455790292866  0.49483681303238797  1.0000
  O   O9        1.0  0.4948367293015324  0.8696457631145833  0.8696453224301858  1.0000
  O   O10       1.0  0.6206349426322825  0.6206349435445913  0.6206348915839199  1.0000
  O   O11       1.0  0.2747828044134691  0.2747827705619582  0.2747829544227628  1.0000
  O   O12       1.0  0.9256907200998086  0.9256905029866309  0.9256907670358709  1.0000
  O   O13       1.0  0.8308272378176716  0.830827266296576  0.8308272195688219  1.0000
  O   O14       1.0  0.40208866217431  0.4020900979452253  0.40208444366813206  1.0000
  O   O15       1.0  0.15028052747884946  0.15028066635899362  0.15028021164378486  1.0000
