data_image0
_chemical_formula_structural       Ca9Si3O16H2OH2OH2OH2OH2
_chemical_formula_sum              "Ca9 Si3 O20 H10"
_cell_length_a       9.52731232580784
_cell_length_b       9.52731232580784
_cell_length_c       10.741912390592178
_cell_angle_alpha    50.10721698731523
_cell_angle_beta     50.10721698731523
_cell_angle_gamma    43.68760434092465

_space_group_name_H-M_alt    "P 1"
_space_group_IT_number       1

loop_
  _space_group_symop_operation_xyz
  'x, y, z'

loop_
  _atom_site_type_symbol
  _atom_site_label
  _atom_site_symmetry_multiplicity
  _atom_site_fract_x
  _atom_site_fract_y
  _atom_site_fract_z
  _atom_site_occupancy
  Ca  Ca1       1.0  0.2222897978472107  0.752474151360527  0.22511781263769864  1.0000
  Ca  Ca2       1.0  0.27308723245532446  0.27874187343298984  0.6286022599508236  1.0000
  Ca  Ca3       1.0  0.7468195257010904  0.22794443515511417  0.22511781013820967  1.0000
  Ca  Ca4       1.0  0.9990579017936416  0.47590727254799714  0.0685624827720267  1.0000
  Ca  Ca5       1.0  0.04469016517954539  0.05034477912551965  0.43102002884668206  1.0000
  Ca  Ca6       1.0  0.4702526964193725  0.004712516415027173  0.06856246206046775  1.0000
  Ca  Ca7       1.0  0.4765700931883442  0.00800165821613931  0.40344789960875377  1.0000
  Ca  Ca8       1.0  0.43064459218393153  0.4362991126676194  0.03866108414471601  1.0000
  Ca  Ca9       1.0  0.0023471255605328916  0.48222467956307263  0.4034479345294141  1.0000
  Si  Si1       1.0  0.7766887466500709  0.7823433299316066  0.6139251138104638  1.0000
  Si  Si2       1.0  0.5436603817789302  0.5493149615489457  0.45049928706416487  1.0000
  Si  Si3       1.0  0.019348951912008028  0.02500285455650042  0.7841066976617233  1.0000
  O   O1        1.0  0.08342335246911918  0.7068734425581247  0.12772909507809793  1.0000
  O   O2        1.0  0.1432516451969381  0.14890597609976766  0.6029579822315594  1.0000
  O   O3        1.0  0.7012191060084045  0.0890775809147093  0.12772901684511148  1.0000
  O   O4        1.0  0.3810274832457823  0.7643049191444095  0.3364426944026967  1.0000
  O   O5        1.0  0.41759787554568817  0.423252470121376  0.6269218159007657  1.0000
  O   O6        1.0  0.7586503146266073  0.38668210601489145  0.3364427058833192  1.0000
  O   O7        1.0  0.8883099972848589  0.5191556780232625  0.6922063060006983  1.0000
  O   O8        1.0  0.8520119274395969  0.8576666347512538  0.40389201230854904  1.0000
  O   O9        1.0  0.5135010478596204  0.8939646778073742  0.6922062503068551  1.0000
  O   O10       1.0  0.6151841590128776  0.620838756059889  0.5006597650404967  1.0000
  O   O11       1.0  0.23583842466405175  0.24149298694724353  0.23461981337806814  1.0000
  O   O12       1.0  0.949782689293478  0.9554370683150031  0.7353181307727668  1.0000
  O   O13       1.0  0.8457322659972124  0.8513868906108201  0.6623461711827291  1.0000
  O   O14       1.0  0.3754726351371308  0.3811286670427484  0.33254403587450604  1.0000
  O   O15       1.0  0.09927883610080068  0.10493357111564743  0.13884847277885437  1.0000
  O   O16       1.0  0.07438830399152799  0.05042393233444592  0.6054022051992828  1.0000
  H   H1        1.0  0.998961517100582  0.1903034207421755  0.5286099423015711  1.0000
  H   H2        1.0  0.21426779239925764  0.9749971454434998  0.5286099423015711  1.0000
  O   O17       1.0  0.2594248947537056  0.29321784158714914  0.5302530238755534  1.0000
  H   H3        1.0  0.18399810786275955  0.43309732999487877  0.4534607609778416  1.0000
  H   H4        1.0  0.39930438316143524  0.2177910546962031  0.4534607609778416  1.0000
  O   O18       1.0  0.12761505880084853  0.18936540237247548  0.961338915855284  1.0000
  H   H5        1.0  0.05218827190990246  0.329244890780205  0.8845466529575723  1.0000
  H   H6        1.0  0.2674945472085781  0.11393861548152935  0.8845466529575723  1.0000
  O   O19       1.0  0.05607783497893827  0.791682032144454  0.20091074444902027  1.0000
  H   H7        1.0  0.9806510480879923  0.9315615205521834  0.12411848155130854  1.0000
  H   H8        1.0  0.19595732338666794  0.7162552452535078  0.12411848155130854  1.0000
  O   O20       1.0  0.6202882642300116  0.07713993119588367  0.6032118316807947  1.0000
  H   H9        1.0  0.5448614773390653  0.21701941960361326  0.526419568783083  1.0000
  H   H10       1.0  0.760167752637741  0.0017131443049376107  0.526419568783083  1.0000
