data_image0
_chemical_formula_structural       Ca8Si4O16
_chemical_formula_sum              "Ca8 Si4 O16"
_cell_length_a       8.891985179840683
_cell_length_b       9.199047838044748
_cell_length_c       9.451817475308744
_cell_angle_alpha    84.5427462097751
_cell_angle_beta     87.17108336830043
_cell_angle_gamma    91.49155727811674

_space_group_name_H-M_alt    "P 1"
_space_group_IT_number       1

loop_
  _space_group_symop_operation_xyz
  'x, y, z'

loop_
  _atom_site_type_symbol
  _atom_site_label
  _atom_site_symmetry_multiplicity
  _atom_site_fract_x
  _atom_site_fract_y
  _atom_site_fract_z
  _atom_site_occupancy
  Ca  Ca1       1.0  0.23887907262328584  0.39219406914825405  0.6438731354223032  1.0000
  Ca  Ca2       1.0  0.8153968511290163  0.6077703407837942  0.544176625631707  1.0000
  Ca  Ca3       1.0  0.49495078228091266  0.6621072440552397  0.33405383440738157  1.0000
  Ca  Ca4       1.0  0.17141897513817272  0.5224200630225964  0.30763645453991795  1.0000
  Ca  Ca5       1.0  0.8220836197142912  0.2730681261908609  0.6303482065312181  1.0000
  Ca  Ca6       1.0  0.3621137135423284  0.7393223126879026  0.6362106851484736  1.0000
  Ca  Ca7       1.0  0.2527025224700082  0.9658752413591977  0.2570483723612761  1.0000
  Ca  Ca8       1.0  0.5840655556683751  0.9903329168186503  0.4995015360596131  1.0000
  Si  Si1       1.0  0.6768528920914278  0.332598380677394  0.3231013185991515  1.0000
  Si  Si2       1.0  0.4480381327022287  0.07336815435182076  0.8534419864110413  1.0000
  Si  Si3       1.0  0.4854826416995651  0.30597771135678964  0.1640601020887931  1.0000
  Si  Si4       1.0  0.5156879480117881  0.40516768229743155  0.8163683882800885  1.0000
  O   O1        1.0  0.11364847335902106  0.7570072448223482  0.2710099304583967  1.0000
  O   O2        1.0  0.26971364900819605  0.7359322665151515  0.2000679644703103  1.0000
  O   O3        1.0  0.4052215202778529  0.15278240187550582  0.14525610630142552  1.0000
  O   O4        1.0  0.7017044148739451  0.7954453451501983  0.4254170605951573  1.0000
  O   O5        1.0  0.6188588478307183  0.7466174989965212  0.5697180570927816  1.0000
  O   O6        1.0  0.7110812748550747  0.20301985188449143  0.44292227199594014  1.0000
  O   O7        1.0  0.46321507690240854  0.9629453313639426  0.7303871983162035  1.0000
  O   O8        1.0  0.3184133317048748  0.5596676875670307  0.49008176964740624  1.0000
  O   O9        1.0  0.9939661471055196  0.46026318148941064  0.656640546893388  1.0000
  O   O10       1.0  0.4245132444998255  0.2438639855828249  0.7755312274058306  1.0000
  O   O11       1.0  0.3839208675602632  0.8933130518508989  0.43064397626012085  1.0000
  O   O12       1.0  0.002302528500140122  0.41259297989182725  0.503103765839401  1.0000
  O   O13       1.0  0.6660801524690644  0.429339617199208  0.7088800520102561  1.0000
  O   O14       1.0  0.38597477940724034  0.5254303700908316  0.7865496020285713  1.0000
  O   O15       1.0  0.6961798976029505  0.4917014279666141  0.37477403435300094  1.0000
  O   O16       1.0  0.391955099347181  0.44187844275280047  0.2080605583767918  1.0000
