data_image0
_chemical_formula_structural       Ca12Si4O20
_chemical_formula_sum              "Ca12 Si4 O20"
_cell_length_a       9.24355862312467
_cell_length_b       8.644124839932177
_cell_length_c       9.386441457562016
_cell_angle_alpha    93.96630002688278
_cell_angle_beta     92.68382613529567
_cell_angle_gamma    90.44387099283911

_space_group_name_H-M_alt    "P 1"
_space_group_IT_number       1

loop_
  _space_group_symop_operation_xyz
  'x, y, z'

loop_
  _atom_site_type_symbol
  _atom_site_label
  _atom_site_symmetry_multiplicity
  _atom_site_fract_x
  _atom_site_fract_y
  _atom_site_fract_z
  _atom_site_occupancy
  Ca  Ca1       1.0  0.7770464518354467  0.43456500901934936  0.24083309256892776  1.0000
  Ca  Ca2       1.0  0.4460612327287369  0.6747869271114919  0.5484718188557223  1.0000
  Ca  Ca3       1.0  0.831281865395347  0.7091453460311978  0.4531030816714033  1.0000
  Ca  Ca4       1.0  0.35936615784848136  0.25207395962145956  0.6327304069404673  1.0000
  Ca  Ca5       1.0  0.531313610747054  0.014598194761705104  0.3657455283660159  1.0000
  Ca  Ca6       1.0  0.7349304530951046  0.5390797715146511  0.7807599711361296  1.0000
  Ca  Ca7       1.0  0.11768541560537003  0.5115821804307902  0.5454008355925888  1.0000
  Ca  Ca8       1.0  0.42791093071237535  0.41741051386803296  0.2787978507010124  1.0000
  Ca  Ca9       1.0  0.3956126899257327  0.8986355766493864  0.7920618607189625  1.0000
  Ca  Ca10      1.0  0.39158681875878565  0.5324654115683962  0.9042568259844325  1.0000
  Ca  Ca11      1.0  0.08421357985777776  0.667299221643842  0.83569548897357  1.0000
  Ca  Ca12      1.0  0.682396963122201  0.8312612919946197  0.051590924362138635  1.0000
  Si  Si1       1.0  0.5798351730744898  0.23013382097311041  0.9401700802464876  1.0000
  Si  Si2       1.0  0.31912841996300984  0.7738786612359936  0.13622673792583898  1.0000
  Si  Si3       1.0  0.8545886196266864  0.0848987591518433  0.33394037923058056  1.0000
  Si  Si4       1.0  0.18759362965636497  0.05579416253083363  0.28367799025523865  1.0000
  O   O1        1.0  0.446343913895829  0.0020386503532558997  0.5794731965921665  1.0000
  O   O2        1.0  0.2396078977037601  0.7274223259834414  0.6665904784460831  1.0000
  O   O3        1.0  0.5451360027910654  0.6919345752523194  0.7931254331712281  1.0000
  O   O4        1.0  0.556624057167545  0.3218989424271832  0.79985846984092  1.0000
  O   O5        1.0  0.7641734816394047  0.5741590222005097  0.025968467691026786  1.0000
  O   O6        1.0  0.7863302420632212  0.9126592716049873  0.2940796653518993  1.0000
  O   O7        1.0  0.5669547132978997  0.33594836178925436  0.08220774203683195  1.0000
  O   O8        1.0  0.6234067095822851  0.579047764482929  0.38778216362290413  1.0000
  O   O9        1.0  0.21260101340555757  0.4145917652992682  0.7752931395079141  1.0000
  O   O10       1.0  0.7195419319281776  0.20283695315572986  0.3497713651572467  1.0000
  O   O11       1.0  0.8674546191442182  0.6879225036089263  0.9643847846650738  1.0000
  O   O12       1.0  0.2112713752330181  0.8672097518807413  0.25644453732558625  1.0000
  O   O13       1.0  0.3356569104683025  0.15606609697395118  0.28248670387742986  1.0000
  O   O14       1.0  0.31698184772884797  0.5859343482195702  0.1425326804019844  1.0000
  O   O15       1.0  0.2639841854515675  0.805442361900883  0.9727415269613949  1.0000
  O   O16       1.0  0.3477034126357337  0.4389325671394001  0.4915993395669816  1.0000
  O   O17       1.0  0.5937782215299507  0.04852618592697127  0.9327473209655269  1.0000
  O   O18       1.0  0.9644118855150937  0.5291648078881737  0.35651545781208427  1.0000
  O   O19       1.0  0.9121858819203438  0.6210043036822867  0.66050325682225  1.0000
  O   O20       1.0  0.4808190255630653  0.8464661053349644  0.17424336262148954  1.0000
