data_image0
_chemical_formula_structural       Ca8Si4O16
_chemical_formula_sum              "Ca8 Si4 O16"
_cell_length_a       8.8808989113712
_cell_length_b       9.206821316871462
_cell_length_c       9.434424801356256
_cell_angle_alpha    84.62733997310669
_cell_angle_beta     87.16062636760452
_cell_angle_gamma    91.45735369237696

_space_group_name_H-M_alt    "P 1"
_space_group_IT_number       1

loop_
  _space_group_symop_operation_xyz
  'x, y, z'

loop_
  _atom_site_type_symbol
  _atom_site_label
  _atom_site_symmetry_multiplicity
  _atom_site_fract_x
  _atom_site_fract_y
  _atom_site_fract_z
  _atom_site_occupancy
  Ca  Ca1       1.0  0.2398835042097515  0.39272222582816846  0.6453725509854986  1.0000
  Ca  Ca2       1.0  0.8164878004607198  0.6084278131972696  0.5418472627766879  1.0000
  Ca  Ca3       1.0  0.4938177266570408  0.6618993971697558  0.33281308490950473  1.0000
  Ca  Ca4       1.0  0.170822516759398  0.5211557623464496  0.3083087673605288  1.0000
  Ca  Ca5       1.0  0.8218035110925492  0.27404846969136887  0.6288137017821885  1.0000
  Ca  Ca6       1.0  0.36360965100760934  0.7392305037743604  0.6371168119108266  1.0000
  Ca  Ca7       1.0  0.2500242416201098  0.9650386004852681  0.25904666404742627  1.0000
  Ca  Ca8       1.0  0.5834345819524189  0.9908400667177684  0.4984644774671915  1.0000
  Si  Si1       1.0  0.676202114921292  0.3320846467615795  0.320982419768871  1.0000
  Si  Si2       1.0  0.45182128335751176  0.07529618759215473  0.8532203681632214  1.0000
  Si  Si3       1.0  0.48335966464604885  0.30418423663582467  0.16324418768371862  1.0000
  Si  Si4       1.0  0.517662010243586  0.4069232065684808  0.8170342184897739  1.0000
  O   O1        1.0  0.11200671047920997  0.7555189651895486  0.2747926879217586  1.0000
  O   O2        1.0  0.2671483637250821  0.7353576928173132  0.20097962024287383  1.0000
  O   O3        1.0  0.4034746556547576  0.15042415084956323  0.14709735374335464  1.0000
  O   O4        1.0  0.7002472991792671  0.7953176854154724  0.4240106013080987  1.0000
  O   O5        1.0  0.6202053868205258  0.7475308859055193  0.5698705203726775  1.0000
  O   O6        1.0  0.7122525130447841  0.20249436478085536  0.44011536748937524  1.0000
  O   O7        1.0  0.46480487509954543  0.964748487256486  0.7298333531989231  1.0000
  O   O8        1.0  0.3192010684258307  0.5590969684495126  0.49075186145504673  1.0000
  O   O9        1.0  0.9943678085457471  0.4601453140850259  0.656640947756977  1.0000
  O   O10       1.0  0.4266748184738473  0.24555081516214852  0.776378430160265  1.0000
  O   O11       1.0  0.3825181873773675  0.8926523487411628  0.4318442350435417  1.0000
  O   O12       1.0  0.0032069875859781494  0.4121836665484764  0.5029388288628514  1.0000
  O   O13       1.0  0.666791574039418  0.4313101897402879  0.7076666545667861  1.0000
  O   O14       1.0  0.3870063998125549  0.5264866553468303  0.7885187916763122  1.0000
  O   O15       1.0  0.6954877080959587  0.49087936548667005  0.37377399953027557  1.0000
  O   O16       1.0  0.39009916379770493  0.4404542861974726  0.20738697149253765  1.0000
