data_image0
_chemical_formula_structural       Ca10Si4O18
_chemical_formula_sum              "Ca10 Si4 O18"
_cell_length_a       8.767400213912918
_cell_length_b       8.969278335912811
_cell_length_c       9.347547966025422
_cell_angle_alpha    85.59487151460297
_cell_angle_beta     83.25835503475658
_cell_angle_gamma    97.30197215200467

_space_group_name_H-M_alt    "P 1"
_space_group_IT_number       1

loop_
  _space_group_symop_operation_xyz
  'x, y, z'

loop_
  _atom_site_type_symbol
  _atom_site_label
  _atom_site_symmetry_multiplicity
  _atom_site_fract_x
  _atom_site_fract_y
  _atom_site_fract_z
  _atom_site_occupancy
  Ca  Ca1       1.0  0.2045701961929962  0.2355978103900575  0.6797823001081024  1.0000
  Ca  Ca2       1.0  0.6862742342244051  0.8559653785594222  0.7880666211215133  1.0000
  Ca  Ca3       1.0  0.10471666915259975  0.15977941329109985  0.3566839558109305  1.0000
  Ca  Ca4       1.0  0.7132367801087194  0.9254536613317795  0.21644365625460008  1.0000
  Ca  Ca5       1.0  0.7010668641013961  0.33165358465293315  0.627551919618523  1.0000
  Ca  Ca6       1.0  0.8575017745591996  0.41755728968135514  0.26382118462276655  1.0000
  Ca  Ca7       1.0  0.2562839991083391  0.5263505874249551  0.2558800756334906  1.0000
  Ca  Ca8       1.0  0.918841646939423  0.7641330887904113  0.46883129511860683  1.0000
  Ca  Ca9       1.0  0.9088069374728325  0.6005129281022179  0.8455390582499045  1.0000
  Ca  Ca10      1.0  0.3250848943693538  0.8568387076118815  0.5536028915627684  1.0000
  Si  Si1       1.0  0.6773006638431947  0.6334484238724302  0.13437729344429258  1.0000
  Si  Si2       1.0  0.07818961795193169  0.4960200729116339  0.5466291132198132  1.0000
  Si  Si3       1.0  0.699066877105448  0.06552967580191096  0.4748543242207845  1.0000
  Si  Si4       1.0  0.4951469283142388  0.5469771952550483  0.7381578607616813  1.0000
  O   O1        1.0  0.21397093035195577  0.05611241809758383  0.5382827900879329  1.0000
  O   O2        1.0  0.16806913651112537  0.6640223286551205  0.47099149803694285  1.0000
  O   O3        1.0  0.43612422169261306  0.7070383149290096  0.7307314248802093  1.0000
  O   O4        1.0  0.772942790977772  0.6928793852293786  0.27243876941736567  1.0000
  O   O5        1.0  0.5630989593449727  0.9390641466976462  0.4306402343399651  1.0000
  O   O6        1.0  0.6694501321231423  0.5409237826518556  0.7654476472756634  1.0000
  O   O7        1.0  0.08561984442379439  0.3502513762705649  0.1987340044706796  1.0000
  O   O8        1.0  0.6903370098808307  0.7916302943485044  0.02349031179054062  1.0000
  O   O9        1.0  0.42577145575600106  0.38698855669923404  0.6942596484563496  1.0000
  O   O10       1.0  0.7787676442712127  0.5114575614010366  0.06112756696309772  1.0000
  O   O11       1.0  0.49836567074670807  0.5692657821365329  0.19395025024978668  1.0000
  O   O12       1.0  0.17906186364097912  0.3724416384313959  0.47259056105761216  1.0000
  O   O13       1.0  0.6925241915348523  0.075503113106775  0.6506957390106493  1.0000
  O   O14       1.0  0.9031764423814413  0.4899867382075884  0.4963058209395146  1.0000
  O   O15       1.0  0.8629794627154073  0.012220512946545343  0.3918401636218481  1.0000
  O   O16       1.0  0.6903897393568283  0.23826561835932708  0.4078440219412497  1.0000
  O   O17       1.0  0.9015699561318526  0.794275657629744  0.6955878226819572  1.0000
  O   O18       1.0  0.06043036705489279  0.4505483152778906  0.7212694151569157  1.0000
