data_image0
_chemical_formula_structural       Ca10Si4O18
_chemical_formula_sum              "Ca10 Si4 O18"
_cell_length_a       8.767406427090222
_cell_length_b       8.969215285989188
_cell_length_c       9.347338068968032
_cell_angle_alpha    85.59619700888196
_cell_angle_beta     83.2592449885077
_cell_angle_gamma    97.30278838390167

_space_group_name_H-M_alt    "P 1"
_space_group_IT_number       1

loop_
  _space_group_symop_operation_xyz
  'x, y, z'

loop_
  _atom_site_type_symbol
  _atom_site_label
  _atom_site_symmetry_multiplicity
  _atom_site_fract_x
  _atom_site_fract_y
  _atom_site_fract_z
  _atom_site_occupancy
  Ca  Ca1       1.0  0.20456675590174808  0.23559675840085648  0.6797910865383989  1.0000
  Ca  Ca2       1.0  0.6862975736998648  0.8559646237964643  0.788052465760198  1.0000
  Ca  Ca3       1.0  0.10471334009924102  0.159781156831867  0.3566808153692161  1.0000
  Ca  Ca4       1.0  0.7132225679820389  0.9254345081055243  0.21645108583509817  1.0000
  Ca  Ca5       1.0  0.701069124473333  0.3316618145295568  0.6275528176546553  1.0000
  Ca  Ca6       1.0  0.8574889467118741  0.41754553865965743  0.2638137500166885  1.0000
  Ca  Ca7       1.0  0.25627332051468205  0.5263531344985068  0.2558735218936538  1.0000
  Ca  Ca8       1.0  0.918841444088769  0.764131314081818  0.4688370825903149  1.0000
  Ca  Ca9       1.0  0.9088263362684363  0.600523827492799  0.8455449466025698  1.0000
  Ca  Ca10      1.0  0.3250735706156485  0.8568431216731172  0.5536169368103884  1.0000
  Si  Si1       1.0  0.6772938103633528  0.6334360863901568  0.13436466882419382  1.0000
  Si  Si2       1.0  0.07819354524018983  0.49601981627348685  0.5466276102355574  1.0000
  Si  Si3       1.0  0.6990643537281076  0.0655271199620729  0.4748615520949003  1.0000
  Si  Si4       1.0  0.49514232409935377  0.5469880841087589  0.7381666914151515  1.0000
  O   O1        1.0  0.21397606900443686  0.056123881307070356  0.5382751758641898  1.0000
  O   O2        1.0  0.1680678436332902  0.6640247812792937  0.4709890391647619  1.0000
  O   O3        1.0  0.4360990524932575  0.707039710701  0.7307500283842676  1.0000
  O   O4        1.0  0.7729366958808817  0.6928596313083394  0.2724354094696407  1.0000
  O   O5        1.0  0.5630968521762211  0.9390506466247686  0.4306549560719775  1.0000
  O   O6        1.0  0.6694742870359364  0.5409760895747585  0.765404832687644  1.0000
  O   O7        1.0  0.08560730741664532  0.35024810148477326  0.1987265364759045  1.0000
  O   O8        1.0  0.6903532730870771  0.7916239742205212  0.023478906150270436  1.0000
  O   O9        1.0  0.4257695418789247  0.3869809393646621  0.6943029345953815  1.0000
  O   O10       1.0  0.7787460746721857  0.511435303383553  0.061113658572320886  1.0000
  O   O11       1.0  0.4983529973766813  0.5692698438786874  0.19392908001344164  1.0000
  O   O12       1.0  0.17907183489722225  0.37244499211488025  0.4725895651135207  1.0000
  O   O13       1.0  0.6925337770931067  0.07550775134469023  0.6507048291697778  1.0000
  O   O14       1.0  0.9031796193780165  0.48997991922612366  0.49630071514227336  1.0000
  O   O15       1.0  0.8629745137450119  0.012216020685165923  0.3918439669546585  1.0000
  O   O16       1.0  0.6903784335900313  0.23825846594618796  0.40784637756559217  1.0000
  O   O17       1.0  0.9016253185893572  0.7942973561283638  0.695597148730098  1.0000
  O   O18       1.0  0.060427353056040786  0.450549097931189  0.7212707544627521  1.0000
