data_image0
_chemical_formula_structural       Ca12Si4O20
_chemical_formula_sum              "Ca12 Si4 O20"
_cell_length_a       9.24352549405508
_cell_length_b       8.64401186829317
_cell_length_c       9.386571162383841
_cell_angle_alpha    93.96845036463874
_cell_angle_beta     92.68484053674672
_cell_angle_gamma    90.44355298626307

_space_group_name_H-M_alt    "P 1"
_space_group_IT_number       1

loop_
  _space_group_symop_operation_xyz
  'x, y, z'

loop_
  _atom_site_type_symbol
  _atom_site_label
  _atom_site_symmetry_multiplicity
  _atom_site_fract_x
  _atom_site_fract_y
  _atom_site_fract_z
  _atom_site_occupancy
  Ca  Ca1       1.0  0.7770454421047426  0.4345534416672114  0.2408555282937484  1.0000
  Ca  Ca2       1.0  0.4460529107788257  0.6748075058291149  0.5484748470856035  1.0000
  Ca  Ca3       1.0  0.831278597933509  0.7091595607573297  0.45310632454943384  1.0000
  Ca  Ca4       1.0  0.3593624331637336  0.2520733637113835  0.6327089644064039  1.0000
  Ca  Ca5       1.0  0.5313214125256636  0.014591693258755145  0.3657432088724447  1.0000
  Ca  Ca6       1.0  0.7349229472463683  0.5390660526604585  0.780734686033622  1.0000
  Ca  Ca7       1.0  0.11768432838716063  0.511591877057776  0.5454087814508852  1.0000
  Ca  Ca8       1.0  0.4279089375699099  0.4174280906603287  0.27879351755794085  1.0000
  Ca  Ca9       1.0  0.3956193346025911  0.8986506550943613  0.7920734698762801  1.0000
  Ca  Ca10      1.0  0.3915793486699586  0.5324719134647432  0.9042407049751072  1.0000
  Ca  Ca11      1.0  0.0842053525669704  0.667312201441052  0.8356977618559193  1.0000
  Ca  Ca12      1.0  0.6824092480754324  0.8312392268639336  0.05157683743449665  1.0000
  Si  Si1       1.0  0.5798439076894991  0.23013503128043525  0.940187748494879  1.0000
  Si  Si2       1.0  0.31913195314956205  0.7738901476539954  0.13621780293072797  1.0000
  Si  Si3       1.0  0.8546010481095958  0.08488788677930659  0.3339500128161335  1.0000
  Si  Si4       1.0  0.18760235361904953  0.055805079905258896  0.2836866908677533  1.0000
  O   O1        1.0  0.4463476289110971  0.002027677552666196  0.5794678825333299  1.0000
  O   O2        1.0  0.2396057384018509  0.7274317982429946  0.6666096814076335  1.0000
  O   O3        1.0  0.5451387698571962  0.6919422953230161  0.7931248799012306  1.0000
  O   O4        1.0  0.5566155840354708  0.321904078680703  0.7998603151340492  1.0000
  O   O5        1.0  0.764113252792746  0.5740870962886004  0.02594694986479129  1.0000
  O   O6        1.0  0.7863451322593781  0.9126489837202587  0.29405941962007426  1.0000
  O   O7        1.0  0.5669538336414521  0.3359498779208494  0.08221185317408153  1.0000
  O   O8        1.0  0.6234042091954128  0.5790569921128984  0.3877923066217797  1.0000
  O   O9        1.0  0.2125918884163687  0.4145929530410254  0.7752749410289931  1.0000
  O   O10       1.0  0.7195523532360495  0.2028251955900923  0.3497921937704204  1.0000
  O   O11       1.0  0.8674537698406545  0.6878302020344488  0.9644117186713637  1.0000
  O   O12       1.0  0.21128162130903239  0.8672179943583124  0.2564448281375619  1.0000
  O   O13       1.0  0.3356682654707406  0.15607555523165897  0.2825027575489827  1.0000
  O   O14       1.0  0.316981568400641  0.5859424531610035  0.14251383921429014  1.0000
  O   O15       1.0  0.26397826571198535  0.8054636218027066  0.9727397219935765  1.0000
  O   O16       1.0  0.34769953596581826  0.43894602738873245  0.49159399718077096  1.0000
  O   O17       1.0  0.5938009193139936  0.048534184147046584  0.9327519896480626  1.0000
  O   O18       1.0  0.9644114487959153  0.5291764153380766  0.3565208981645537  1.0000
  O   O19       1.0  0.9121776462695927  0.6210284788608409  0.6605056105569774  1.0000
  O   O20       1.0  0.48082835455471107  0.8464696432361954  0.17422941726670851  1.0000
