data_image0
_chemical_formula_structural       Si5Al4FeO16
_chemical_formula_sum              "Si5 Al4 Fe1 O16"
_cell_length_a       9.999999999999998
_cell_length_b       9.999999999999998
_cell_length_c       9.999999999999998
_cell_angle_alpha    90.0
_cell_angle_beta     90.0
_cell_angle_gamma    90.0

_space_group_name_H-M_alt    "P 1"
_space_group_IT_number       1

loop_
  _space_group_symop_operation_xyz
  'x, y, z'

loop_
  _atom_site_type_symbol
  _atom_site_label
  _atom_site_symmetry_multiplicity
  _atom_site_fract_x
  _atom_site_fract_y
  _atom_site_fract_z
  _atom_site_occupancy
  Si  Si1       1.0  0.6026722392394234  0.6612348519535224  0.5997499607484116  1.0000
  Si  Si2       1.0  0.8955089914015181  0.5089429774719836  0.37889799569263666  1.0000
  Si  Si3       1.0  0.8220210370411056  0.8147515437413612  0.4308850309631021  1.0000
  Si  Si4       1.0  0.669223992285192  0.4872853055639061  0.32689460944469617  1.0000
  Si  Si5       1.0  0.6518329861816456  0.18242529816748546  0.4101465134891888  1.0000
  Al  Al1       1.0  0.6333651756735517  0.9250585804443159  0.22438667382084607  1.0000
  Al  Al2       1.0  0.3375104025050182  0.6117214065638329  0.4788349907913691  1.0000
  Al  Al3       1.0  0.46244988281063293  0.6902985839813378  0.20706540224896436  1.0000
  Al  Al4       1.0  0.49613255425284564  0.36851591039688336  0.50105051185399  1.0000
  Fe  Fe1       1.0  0.8847018086162801  0.15700570264997338  0.4594532185615459  1.0000
  O   O1        1.0  0.5106894916342232  0.8404679418143824  0.14292004926834312  1.0000
  O   O2        1.0  0.5578677412500797  0.21070711338708373  0.5443914251470857  1.0000
  O   O3        1.0  0.3407345957681728  0.4399554466527521  0.49645229295406285  1.0000
  O   O4        1.0  0.5953667886910851  0.06599267080002558  0.313351837806078  1.0000
  O   O5        1.0  0.6053874021641906  0.5226467229828126  0.49144787087233416  1.0000
  O   O6        1.0  0.44217487598572475  0.6955093029235289  0.5931204103886888  1.0000
  O   O7        1.0  0.9088927838261244  0.6701561432855211  0.4382173592472457  1.0000
  O   O8        1.0  0.10095288544663274  0.15241717691577988  0.9547736810441234  1.0000
  O   O9        1.0  0.9015042201189799  0.36239203143931414  0.4573494978917109  1.0000
  O   O10       1.0  0.6869569800441617  0.7803166120929278  0.5261519219259111  1.0000
  O   O11       1.0  0.5912532568684096  0.5747211085666909  0.21819159660778498  1.0000
  O   O12       1.0  0.7649612338462086  0.8292180710372029  0.27788799046149415  1.0000
  O   O13       1.0  0.33715765976291867  0.6787949917775126  0.3221361287222049  1.0000
  O   O14       1.0  0.597672969319099  0.3340682726773938  0.33421114435442284  1.0000
  O   O15       1.0  0.8855339346244749  0.9590931391950528  0.4728976334745377  1.0000
  O   O16       1.0  0.14457695932219627  0.26561417895539635  0.975224793699803  1.0000
