data_image0
_chemical_formula_structural       Si4Al2CaO12
_chemical_formula_sum              "Si4 Al2 Ca1 O12"
_cell_length_a       9.0
_cell_length_b       9.0
_cell_length_c       9.0
_cell_angle_alpha    90.0
_cell_angle_beta     90.0
_cell_angle_gamma    90.0

_space_group_name_H-M_alt    "P 1"
_space_group_IT_number       1

loop_
  _space_group_symop_operation_xyz
  'x, y, z'

loop_
  _atom_site_type_symbol
  _atom_site_label
  _atom_site_symmetry_multiplicity
  _atom_site_fract_x
  _atom_site_fract_y
  _atom_site_fract_z
  _atom_site_occupancy
  Si  Si1       1.0  0.10338773652001099  0.28853035365428925  0.1899745699297251  1.0000
  Si  Si2       1.0  0.7683533305367269  0.31484631378690425  0.25855796951371557  1.0000
  Si  Si3       1.0  0.22659629259167477  0.6193461953625871  0.7526735295662573  1.0000
  Si  Si4       1.0  0.5277740266587083  0.6710434242757835  0.6475555421108342  1.0000
  Al  Al1       1.0  0.4268252969038279  0.25163981617697306  0.3424724211610689  1.0000
  Al  Al2       1.0  0.42084985393202656  0.3843458665239375  0.5880630534244923  1.0000
  Ca  Ca1       1.0  0.5624873303122486  0.6210528471179914  0.3112129189511449  1.0000
  O   O1        1.0  0.2464640897861876  0.212410128868615  0.2624320037972525  1.0000
  O   O2        1.0  0.10618389938951951  0.403874997155149  0.06318260784918853  1.0000
  O   O3        1.0  0.6156925728586566  0.22240596091415504  0.2536978748997168  1.0000
  O   O4        1.0  0.9350418275008398  0.2378588674706972  0.2581706856113273  1.0000
  O   O5        1.0  0.3835822340489539  0.7232945529178303  0.7403440541002947  1.0000
  O   O6        1.0  0.08737020865215869  0.6992204537557375  0.8076315956457485  1.0000
  O   O7        1.0  0.5939426722610832  0.7632223186425849  0.5149501062740002  1.0000
  O   O8        1.0  0.5686355581555446  0.49970163921449134  0.6648357001139575  1.0000
  O   O9        1.0  0.7650109186827395  0.4902581077010952  0.26342600629105745  1.0000
  O   O10       1.0  0.4225967287038931  0.45003163154659825  0.38911810592045293  1.0000
  O   O11       1.0  0.26795739971880167  0.461404734800548  0.686199569644413  1.0000
  O   O12       1.0  0.4385111110342037  0.203599658164771  0.52944952378848  1.0000
