data_image0
_chemical_formula_structural       AlSi2Al2Si2AlO15H2OH2OH2OH2OH2OH2OH2OH2OH2OH2
_chemical_formula_sum              "Al4 Si4 O24 H20"
_cell_length_a       8.0
_cell_length_b       8.0
_cell_length_c       16.0
_cell_angle_alpha    90.0
_cell_angle_beta     90.0
_cell_angle_gamma    90.0

_space_group_name_H-M_alt    "P 1"
_space_group_IT_number       1

loop_
  _space_group_symop_operation_xyz
  'x, y, z'

loop_
  _atom_site_type_symbol
  _atom_site_label
  _atom_site_symmetry_multiplicity
  _atom_site_fract_x
  _atom_site_fract_y
  _atom_site_fract_z
  _atom_site_occupancy
  Al  Al1       1.0  0.24744219216466903  0.3271030920130577  0.15791122208108938  1.0000
  Si  Si1       1.0  0.5996215443623214  0.35019971056999893  0.07917129677569777  1.0000
  Si  Si2       1.0  0.1517945045729887  0.6753868138725696  0.25999189505647746  1.0000
  Al  Al2       1.0  0.7569733941976254  0.6583287887150622  0.18538961708967558  1.0000
  Al  Al3       1.0  0.29780900024390516  0.05236487844043001  0.29299567483829303  1.0000
  Si  Si3       1.0  0.6310641230468915  0.014482599876561454  0.17809963491815098  1.0000
  Si  Si4       1.0  0.470522659820754  0.0843360571928009  0.45889268735633615  1.0000
  Al  Al4       1.0  0.5188239711393977  0.8059975915480662  0.3276975360914276  1.0000
  O   O1        1.0  0.39473461278496424  0.4047556559659507  0.08902862830140508  1.0000
  O   O2        1.0  0.25843399615079315  0.34198042446188887  0.15404624077277515  1.0000
  O   O3        1.0  0.6429690487830136  0.20471209481970515  0.15243564864921738  1.0000
  O   O4        1.0  0.7158367359233223  0.5065708756832267  0.10490437288024587  1.0000
  O   O5        1.0  0.2559247954943722  0.5107552688165368  0.24261312843797905  1.0000
  O   O6        1.0  0.271110144360157  0.8186244611265919  0.30396574669578075  1.0000
  O   O7        1.0  0.9672733093460274  0.6899076081358713  0.2259189676080432  1.0000
  O   O8        1.0  0.6270534246207963  0.6598635266349735  0.27313503557625246  1.0000
  O   O9        1.0  0.33768924400191797  0.1512254214624213  0.3876949426188407  1.0000
  O   O10       1.0  0.1841627782447127  0.13791854131044604  0.2135928662904173  1.0000
  O   O11       1.0  0.51339123944982  0.9942687350601283  0.2587118639102026  1.0000
  O   O12       1.0  0.6021398971559642  0.23922080243963204  0.49029179773764453  1.0000
  O   O13       1.0  0.5629454029726928  0.9150557697653433  0.4209978901814782  1.0000
  O   O14       1.0  0.7242129529693883  0.8616496842495163  0.13807837347762364  1.0000
  O   O15       1.0  0.7993370868283409  0.8404892364504859  0.5990559518755801  1.0000
  H   H1        1.0  0.8508316763553374  0.7601748702187103  0.56178663937558  1.0000
  H   H2        1.0  0.7478424973013444  0.9208036026822615  0.56178663937558  1.0000
  O   O16       1.0  0.1785493505758476  0.09513569398090613  0.7515060329281055  1.0000
  H   H3        1.0  0.24342196183280548  0.16509021122224832  0.7142367204281054  1.0000
  H   H4        1.0  0.11367673931888969  0.025181176739563924  0.7142367204281054  1.0000
  O   O17       1.0  0.7745438293979947  0.9135005603682578  0.9280982706046138  1.0000
  H   H5        1.0  0.8210001613788851  0.996830623326634  0.8908289581046137  1.0000
  H   H6        1.0  0.7280874974171043  0.8301704974098816  0.8908289581046137  1.0000
  O   O18       1.0  0.19073014610938527  0.8651524721635525  0.7744057803423926  1.0000
  H   H7        1.0  0.12370134087870863  0.7972611660698145  0.7371364678423925  1.0000
  H   H8        1.0  0.2577589513400619  0.9330437782572906  0.7371364678423925  1.0000
  O   O19       1.0  0.42808237669628607  0.6714459876511709  0.5808417379007114  1.0000
  H   H9        1.0  0.38366594691821027  0.5870109774981846  0.5435724254007113  1.0000
  H   H10       1.0  0.4724988064743619  0.7558809978041572  0.5435724254007113  1.0000
  O   O20       1.0  0.577165794084975  0.5167126615442411  0.7300331636656644  1.0000
  H   H11       1.0  0.6470742334330115  0.5816349249188919  0.6927638511656643  1.0000
  H   H12       1.0  0.5072573547369386  0.45179039816959027  0.6927638511656643  1.0000
  O   O21       1.0  0.5767953155787846  0.13538682290904047  0.9130839710499093  1.0000
  H   H13       1.0  0.48524097692469004  0.10855599647046438  0.8758146585499093  1.0000
  H   H14       1.0  0.6683496542328792  0.16221764934761657  0.8758146585499093  1.0000
  O   O22       1.0  0.25110131884741316  0.37596906971824545  0.9335330340326015  1.0000
  H   H15       1.0  0.3464543120970697  0.3791149959882921  0.8962637215326014  1.0000
  H   H16       1.0  0.1557483255977566  0.3728231434481988  0.8962637215326014  1.0000
  O   O23       1.0  0.5982106922433622  0.09088594715051213  0.672489067964715  1.0000
  H   H17       1.0  0.6712406139689888  0.029496039946522404  0.6352197554647149  1.0000
  H   H18       1.0  0.5251807705177356  0.15227585435450186  0.6352197554647149  1.0000
  O   O24       1.0  0.09112412523070954  0.06604028615236852  0.927218939268561  1.0000
  H   H19       1.0  0.15818133480962934  0.9981770352926105  0.8899496267685609  1.0000
  H   H20       1.0  0.024066915651789714  0.13390353701212654  0.8899496267685609  1.0000
