data_image0
_chemical_formula_structural       Fe5Si4Mg2O16
_chemical_formula_sum              "Fe5 Si4 Mg2 O16"
_cell_length_a       10.62658569182611
_cell_length_b       10.62658569182611
_cell_length_c       10.62658569182611
_cell_angle_alpha    90.0
_cell_angle_beta     90.0
_cell_angle_gamma    90.0

_space_group_name_H-M_alt    "P 1"
_space_group_IT_number       1

loop_
  _space_group_symop_operation_xyz
  'x, y, z'

loop_
  _atom_site_type_symbol
  _atom_site_label
  _atom_site_symmetry_multiplicity
  _atom_site_fract_x
  _atom_site_fract_y
  _atom_site_fract_z
  _atom_site_occupancy
  Fe  Fe1       1.0  0.6837906421795621  0.6546699835807851  0.3880374156950905  1.0000
  Fe  Fe2       1.0  0.17307128323071208  0.47491303024033654  0.3339720548049671  1.0000
  Fe  Fe3       1.0  0.5783522731154219  0.7523159399072182  0.804839055386239  1.0000
  Fe  Fe4       1.0  0.4585889775119727  0.18749950985438985  0.39843808522987323  1.0000
  Fe  Fe5       1.0  0.559656149276041  0.10236578615096555  0.7143199278629314  1.0000
  Si  Si1       1.0  0.44693239744611185  0.49634901143754584  0.33190371117676626  1.0000
  Si  Si2       1.0  0.5950429342596265  0.42854290166805864  0.8055670268326572  1.0000
  Si  Si3       1.0  0.7808403027833111  0.5964780378107216  0.9195788960500842  1.0000
  Si  Si4       1.0  0.8998214509298335  0.5543768926866948  0.17266496493509478  1.0000
  Mg  Mg1       1.0  0.6007914292492407  0.6726474146198926  0.1533834582228598  1.0000
  Mg  Mg2       1.0  0.47736385794744574  0.8975794256702948  0.35096614062473674  1.0000
  O   O1        1.0  0.899722723737761  0.5728769400514903  0.02201561885427683  1.0000
  O   O2        1.0  0.48697251580636414  0.06656765665169959  0.2669313496354681  1.0000
  O   O3        1.0  0.6696421527398766  0.6875370035514964  0.9759398723924938  1.0000
  O   O4        1.0  0.7764540692375266  0.6080353358935772  0.23241485029071737  1.0000
  O   O5        1.0  0.5619377577476163  0.2843533988668127  0.7839455186518525  1.0000
  O   O6        1.0  0.00930227343496813  0.4919270580628354  0.2508479161381638  1.0000
  O   O7        1.0  0.34653846356200674  0.029948871779908515  0.36869627747911776  1.0000
  O   O8        1.0  0.5426051029078868  0.13421034433775691  0.5447560130268189  1.0000
  O   O9        1.0  0.31456653087598896  0.5447545015723451  0.4018967762819932  1.0000
  O   O10       1.0  0.46695486269811637  0.5622490150292296  0.195105445222788  1.0000
  O   O11       1.0  0.5711408795715193  0.9326039598725222  0.7675512010597209  1.0000
  O   O12       1.0  0.5385017993293111  0.5614409503603107  0.760671949825354  1.0000
  O   O13       1.0  0.6061850986820309  0.7848592227483485  0.3025008119267493  1.0000
  O   O14       1.0  0.42615981621568233  0.3430745095762692  0.32823544457521847  1.0000
  O   O15       1.0  0.7236208397098475  0.4533673799385729  0.8919616997598558  1.0000
  O   O16       1.0  0.5714106987171875  0.5307259174666121  0.42314230391783614  1.0000
