data_image0
_chemical_formula_structural       Si6K2CaO17H2OH2OH2OH2OH2OH2OH2OH2OH2OH2
_chemical_formula_sum              "Si6 K2 Ca1 O26 H20"
_cell_length_a       14.482340769084445
_cell_length_b       14.482340769084445
_cell_length_c       14.482340769084445
_cell_angle_alpha    90.0
_cell_angle_beta     90.0
_cell_angle_gamma    90.0

_space_group_name_H-M_alt    "P 1"
_space_group_IT_number       1

loop_
  _space_group_symop_operation_xyz
  'x, y, z'

loop_
  _atom_site_type_symbol
  _atom_site_label
  _atom_site_symmetry_multiplicity
  _atom_site_fract_x
  _atom_site_fract_y
  _atom_site_fract_z
  _atom_site_occupancy
  Si  Si1       1.0  0.44856440639742373  0.3323965549495636  0.10673114127235957  1.0000
  Si  Si2       1.0  0.5807709351775889  0.3586951537282757  0.2164959164871579  1.0000
  Si  Si3       1.0  0.16506501659404973  0.601995260988036  0.33665454591820965  1.0000
  Si  Si4       1.0  0.09440469538863963  0.452949474324778  0.29111859453395256  1.0000
  Si  Si5       1.0  0.24899811375561173  0.31349916020905866  0.6500279870036139  1.0000
  Si  Si6       1.0  0.43492783673989743  0.29317323280211  0.27632647759091605  1.0000
  K   K1        1.0  0.27310476006430084  0.7774294290366497  0.4464344424179864  1.0000
  K   K2        1.0  0.15706355324198537  0.193537045255999  0.22380225992199615  1.0000
  Ca  Ca1       1.0  0.2589511543255894  0.40117757549007027  0.414861340503761  1.0000
  O   O1        1.0  0.6607410076918683  0.430213273477574  0.23670239332329748  1.0000
  O   O2        1.0  0.4638380940993222  0.3990123537498824  0.21624248855860911  1.0000
  O   O3        1.0  0.36225615932071414  0.29513058077959536  0.35616814983755013  1.0000
  O   O4        1.0  0.08036104725700782  0.5271296556510925  0.3791848022120509  1.0000
  O   O5        1.0  0.4081314575439399  0.24383425137775583  0.1763297186568325  1.0000
  O   O6        1.0  0.19715964276093376  0.2769780010880763  0.06925199659270716  1.0000
  O   O7        1.0  0.5686901673312368  0.32109710415468756  0.10954838999342992  1.0000
  O   O8        1.0  0.48178670835975246  0.9670230474969914  0.5359623357937572  1.0000
  O   O9        1.0  0.15428027383996354  0.7094937051727953  0.31852675916678963  1.0000
  O   O10       1.0  0.28013890846689415  0.5634356271994059  0.36576139103990346  1.0000
  O   O11       1.0  0.16090761127702824  0.5304307731218909  0.2364946432084352  1.0000
  O   O12       1.0  0.22825085320327054  0.5984580567491412  0.44773353149664624  1.0000
  O   O13       1.0  0.14356325735439343  0.35751699400667797  0.31914753201951335  1.0000
  O   O14       1.0  0.5504851994831111  0.2803402508781574  0.2958733731398208  1.0000
  O   O15       1.0  0.43240935592750845  0.9837761165914046  0.6032251805537938  1.0000
  O   O16       1.0  0.23870750647503275  0.31003220087332795  0.5424323677509837  1.0000
  O   O17       1.0  0.7738673814093041  0.8178524573165425  0.12548309158963972  1.0000
  H   H1        1.0  0.7699796385606514  0.8704102198701095  0.08430818695868773  1.0000
  H   H2        1.0  0.7777551242579568  0.7652946947629755  0.08430818695868773  1.0000
  O   O18       1.0  0.10507186164816663  0.7908646888370892  0.7905405953202115  1.0000
  H   H3        1.0  0.10117973053820382  0.8434221266029966  0.7493656906892593  1.0000
  H   H4        1.0  0.10896399275812946  0.7383072510711817  0.7493656906892593  1.0000
  O   O19       1.0  0.26174338818735365  0.7879499941266392  0.6651880026367692  1.0000
  H   H5        1.0  0.2611326920421362  0.8406478119117485  0.6240130980058172  1.0000
  H   H6        1.0  0.2623540843325711  0.7352521763415298  0.6240130980058172  1.0000
  O   O20       1.0  0.774983510444675  0.8018592200356945  0.3693150745475904  1.0000
  H   H7        1.0  0.7695060519141765  0.8542751565163208  0.3281401699166384  1.0000
  H   H8        1.0  0.7804609689751733  0.7494432835550683  0.3281401699166384  1.0000
  O   O21       1.0  0.8187150250824751  0.534211457176077  0.1820815753229214  1.0000
  H   H9        1.0  0.818698407252017  0.5869128107919196  0.14090667069196944  1.0000
  H   H10       1.0  0.818731642912933  0.4815101035602343  0.14090667069196944  1.0000
  O   O22       1.0  0.5572430907584405  0.5361947611457899  0.673827775790176  1.0000
  H   H11       1.0  0.5530449903777511  0.5887286445191712  0.632652871159224  1.0000
  H   H12       1.0  0.5614411911391298  0.48366087777240857  0.632652871159224  1.0000
  O   O23       1.0  0.8083488900041361  0.10452308726077852  0.33724311853016437  1.0000
  H   H13       1.0  0.805434767378913  0.15714381358054286  0.2960682138992124  1.0000
  H   H14       1.0  0.8112630126293592  0.051902360941014185  0.2960682138992124  1.0000
  O   O24       1.0  0.8670489440946808  0.5911723296565349  0.4813202935461981  1.0000
  H   H15       1.0  0.8635522253097994  0.6437575548327554  0.4401453889152461  1.0000
  H   H16       1.0  0.8705456628795624  0.5385871044803142  0.4401453889152461  1.0000
  O   O25       1.0  0.5512168700880321  0.8348492421362419  0.2663598494428196  1.0000
  H   H17       1.0  0.5486007090864661  0.8874856235725475  0.2251849448118676  1.0000
  H   H18       1.0  0.5538330310895982  0.7822128606999362  0.2251849448118676  1.0000
  O   O26       1.0  0.5228492591500664  0.5653537448673674  0.3833127947942041  1.0000
  H   H19       1.0  0.5206133602559251  0.6180076498054587  0.3421378901632521  1.0000
  H   H20       1.0  0.5250851580442077  0.5126998399292763  0.3421378901632521  1.0000
