data_image0
_chemical_formula_structural       Si6K2CaO16
_chemical_formula_sum              "Si6 K2 Ca1 O16"
_cell_length_a       9.654893846056297
_cell_length_b       9.654893846056297
_cell_length_c       9.654893846056297
_cell_angle_alpha    90.0
_cell_angle_beta     90.0
_cell_angle_gamma    90.0

_space_group_name_H-M_alt    "P 1"
_space_group_IT_number       1

loop_
  _space_group_symop_operation_xyz
  'x, y, z'

loop_
  _atom_site_type_symbol
  _atom_site_label
  _atom_site_symmetry_multiplicity
  _atom_site_fract_x
  _atom_site_fract_y
  _atom_site_fract_z
  _atom_site_occupancy
  Si  Si1       1.0  0.6728466095961356  0.49859483242434544  0.16009671190853936  1.0000
  Si  Si2       1.0  0.8711564027663835  0.5380427305924136  0.32474387473073685  1.0000
  Si  Si3       1.0  0.2475975248910746  0.9029928914820541  0.5049818188773145  1.0000
  Si  Si4       1.0  0.14160704308295946  0.679424211487167  0.43667789180092886  1.0000
  Si  Si5       1.0  0.37349717063341764  0.470248740313588  0.9750419805054208  1.0000
  Si  Si6       1.0  0.6523917551098461  0.439759849203165  0.4144897163863741  1.0000
  K   K1        1.0  0.4096571400964513  0.16614414355497464  0.6696516636269796  1.0000
  K   K2        1.0  0.23559532986297807  0.2903055678839985  0.33570338988299425  1.0000
  Ca  Ca1       1.0  0.38842673148838414  0.6017663632351055  0.6222920107556416  1.0000
  O   O1        1.0  0.9911115115378025  0.645319910216361  0.35505358998494624  1.0000
  O   O2        1.0  0.6957571411489833  0.5985185306248236  0.3243637328379137  1.0000
  O   O3        1.0  0.5433842389810712  0.4426958711693931  0.5342522247563253  1.0000
  O   O4        1.0  0.12054157088551175  0.7906944834766387  0.5687772033180764  1.0000
  O   O5        1.0  0.6121971863159099  0.36575137706663374  0.2644945779852488  1.0000
  O   O6        1.0  0.2957394641414006  0.41546700163211453  0.10387799488906074  1.0000
  O   O7        1.0  0.8530352509968553  0.48164565623203137  0.16432258499014488  1.0000
  O   O8        1.0  0.7226800625396288  0.9505345712454872  0.8039435036906359  1.0000
  O   O9        1.0  0.23142041075994532  0.0642405577591929  0.4777901387501845  1.0000
  O   O10       1.0  0.42020836270034123  0.8451534407991089  0.5486420865598552  1.0000
  O   O11       1.0  0.2413614169155424  0.7956461596828364  0.3547419648126528  1.0000
  O   O12       1.0  0.3423762798049058  0.8976870851237119  0.6716002972449694  1.0000
  O   O13       1.0  0.2153448860315902  0.536275491010017  0.47872129802927  1.0000
  O   O14       1.0  0.8257277992246668  0.4205103763172361  0.4438100597097313  1.0000
  O   O15       1.0  0.6486140338912627  0.975664174887107  0.9048377708306908  1.0000
  O   O16       1.0  0.35806125971254915  0.4650483013099919  0.8136485516264756  1.0000
