data_image0
_chemical_formula_structural       Si8KO16
_chemical_formula_sum              "Si8 K1 O16"
_cell_length_a       9.283177667225557
_cell_length_b       9.283177667225557
_cell_length_c       9.283177667225557
_cell_angle_alpha    90.0
_cell_angle_beta     90.0
_cell_angle_gamma    90.0

_space_group_name_H-M_alt    "P 1"
_space_group_IT_number       1

loop_
  _space_group_symop_operation_xyz
  'x, y, z'

loop_
  _atom_site_type_symbol
  _atom_site_label
  _atom_site_symmetry_multiplicity
  _atom_site_fract_x
  _atom_site_fract_y
  _atom_site_fract_z
  _atom_site_occupancy
  Si  Si1       1.0  0.6218242904854238  0.3710555685677434  0.6473229315530914  1.0000
  Si  Si2       1.0  0.3320595411715514  0.2382653502752655  0.6915387248477043  1.0000
  Si  Si3       1.0  0.3136698487805368  0.6454525935236322  0.31397085758617477  1.0000
  Si  Si4       1.0  0.6628453292310361  0.3588274259461686  0.3357834508066607  1.0000
  Si  Si5       1.0  0.6539375602913374  0.6609674783658148  0.810776994917071  1.0000
  Si  Si6       1.0  0.6084235373553132  0.6376609168019287  0.17093836566126724  1.0000
  Si  Si7       1.0  0.3649832471975799  0.35090690046301004  0.4596987175119722  1.0000
  Si  Si8       1.0  0.722832967807046  0.7748048768469245  0.4767933362451493  1.0000
  K   K1        1.0  0.08471030336374419  0.011949050955542884  0.4134102889259451  1.0000
  O   O1        1.0  0.27907467827745036  0.49494174968714244  0.3931779079199719  1.0000
  O   O2        1.0  0.43097041031845584  0.6282118509218143  0.1858084529859532  1.0000
  O   O3        1.0  0.6507293979204235  0.7374216021428875  0.31780165412897443  1.0000
  O   O4        1.0  0.6456727226786416  0.7343563815734653  0.6313793496193333  1.0000
  O   O5        1.0  0.6356315789706779  0.20800043128341034  0.686926266203053  1.0000
  O   O6        1.0  0.8679180483254342  0.8573105826012505  0.47706630689554813  1.0000
  O   O7        1.0  0.24351219138250318  0.7904178423379856  0.3549005200548894  1.0000
  O   O8        1.0  0.31020494747329225  0.2603641883950339  0.7301713105417464  1.0000
  O   O9        1.0  0.6450863363605153  0.6857175663238796  0.0033454136097983422  1.0000
  O   O10       1.0  0.49065887577154443  0.3138209119026282  0.33782993633347197  1.0000
  O   O11       1.0  0.2637604017860529  0.22047056194548578  0.5015563878976163  1.0000
  O   O12       1.0  0.6808422344776451  0.48046486039059794  0.20534488275815288  1.0000
  O   O13       1.0  0.4444965753742707  0.40739087154777004  0.6093254664483962  1.0000
  O   O14       1.0  0.30482376579167914  0.15687148842710064  0.8024777983594693  1.0000
  O   O15       1.0  0.6617661446068492  0.4889459371472773  0.7790057128997083  1.0000
  O   O16       1.0  0.702894655657983  0.43089597299085125  0.4931635758339104  1.0000
