data_image0
_chemical_formula_structural       Si8O17H2OH2OH2OH2OH2OH2OH2OH2OH2OH2
_chemical_formula_sum              "Si8 O26 H20"
_cell_length_a       13.924766500838334
_cell_length_b       13.924766500838334
_cell_length_c       13.924766500838334
_cell_angle_alpha    90.0
_cell_angle_beta     90.0
_cell_angle_gamma    90.0

_space_group_name_H-M_alt    "P 1"
_space_group_IT_number       1

loop_
  _space_group_symop_operation_xyz
  'x, y, z'

loop_
  _atom_site_type_symbol
  _atom_site_label
  _atom_site_symmetry_multiplicity
  _atom_site_fract_x
  _atom_site_fract_y
  _atom_site_fract_z
  _atom_site_occupancy
  Si  Si1       1.0  0.1734678203537745  0.2399099495717619  0.6214974637168696  1.0000
  Si  Si2       1.0  0.46289982478972286  0.5132356984528788  0.19909580965968413  1.0000
  Si  Si3       1.0  0.6414470733099249  0.4027091347734267  0.164390340704318  1.0000
  Si  Si4       1.0  0.1498650950786303  0.28083107671110547  0.17473579905299783  1.0000
  Si  Si5       1.0  0.23254105542777756  0.305270948779837  0.4752705114958375  1.0000
  Si  Si6       1.0  0.23101532355976687  0.5231152804782632  0.41067428493237706  1.0000
  Si  Si7       1.0  0.23830928530734394  0.18054728567385356  0.28661538148866017  1.0000
  Si  Si8       1.0  0.32176543818143927  0.6324258354919697  0.31426477000632436  1.0000
  O   O1        1.0  0.42732145437578983  0.6026251099458556  0.26756658535412015  1.0000
  O   O2        1.0  0.12612064250843028  0.17925862269800788  0.2396235964420027  1.0000
  O   O3        1.0  0.5882981091742275  0.3174711706288057  0.1007733752152719  1.0000
  O   O4        1.0  0.6304670098442084  0.41202521048207424  0.0456068598765218  1.0000
  O   O5        1.0  0.12219400050620115  0.2976724985898684  0.5243153380906919  1.0000
  O   O6        1.0  0.2476422779814498  0.22185964213711648  0.3950525318627779  1.0000
  O   O7        1.0  0.32002379702022465  0.9394223954415022  0.4310396126087258  1.0000
  O   O8        1.0  0.23558346494124394  0.8860794243859197  0.29075439447635604  1.0000
  O   O9        1.0  0.400047082875831  0.4669154593238666  0.12277760023149267  1.0000
  O   O10       1.0  0.5735685130404842  0.478699717321174  0.22518964462581534  1.0000
  O   O11       1.0  0.262851658012401  0.4101680778893701  0.432001679350769  1.0000
  O   O12       1.0  0.28506048881926194  0.27156659774430775  0.5776526595323633  1.0000
  O   O13       1.0  0.7445745504445419  0.37076273747287086  0.2109106647265646  1.0000
  O   O14       1.0  0.2946139128998943  0.07670163418681705  0.284448649397613  1.0000
  O   O15       1.0  0.2649502378552135  0.273932728588047  0.2136329563490033  1.0000
  O   O16       1.0  0.14559940049039924  0.2843494936402799  0.058389292732893276  1.0000
  O   O17       1.0  0.8271158227883351  0.10165687575223048  0.4378282012077431  1.0000
  H   H1        1.0  0.8230117760608839  0.15631463282751348  0.395004574688469  1.0000
  H   H2        1.0  0.8312198695157862  0.04699911867694747  0.395004574688469  1.0000
  O   O18       1.0  0.6046237018258339  0.7066626274946923  0.7363353289580493  1.0000
  H   H3        1.0  0.6004070340478866  0.7613118115772765  0.6935117024387751  1.0000
  H   H4        1.0  0.6088403696037812  0.6520134434121081  0.6935117024387751  1.0000
  O   O19       1.0  0.420745202937345  0.7573153326118915  0.5988004023613405  1.0000
  H   H5        1.0  0.4151073638024899  0.811836231154847  0.5559767758420664  1.0000
  H   H6        1.0  0.4263830420722002  0.702794434068936  0.5559767758420664  1.0000
  O   O20       1.0  0.6488207032951889  0.3010982076842337  0.4371672507615759  1.0000
  H   H7        1.0  0.645767086576865  0.35582470065591354  0.39434362424230185  1.0000
  H   H8        1.0  0.6518743200135129  0.24637171471255384  0.39434362424230185  1.0000
  O   O21       1.0  0.820305502144246  0.8856819852935167  0.8282117361793185  1.0000
  H   H9        1.0  0.8170656000496527  0.9403977658550623  0.7853881096600444  1.0000
  H   H10       1.0  0.8235454042388394  0.8309662047319711  0.7853881096600444  1.0000
  O   O22       1.0  0.7202755565010597  0.895656727133626  0.3206473620256645  1.0000
  H   H11       1.0  0.7190622354626824  0.9504549156082424  0.27782373550639045  1.0000
  H   H12       1.0  0.7214888775394369  0.8408585386590095  0.27782373550639045  1.0000
  O   O23       1.0  0.781167123234522  0.5686830579440054  0.385654315989848  1.0000
  H   H13       1.0  0.7769811716702282  0.6233346033708562  0.34283068947057393  1.0000
  H   H14       1.0  0.7853530747988159  0.5140315125171546  0.34283068947057393  1.0000
  O   O24       1.0  0.20868446050547884  0.8752606237629823  0.6588686386604727  1.0000
  H   H15       1.0  0.20390915997360198  0.929863829830685  0.6160450121411986  1.0000
  H   H16       1.0  0.2134597610373557  0.8206574176952797  0.6160450121411986  1.0000
  O   O25       1.0  0.5941149862757946  0.3340675962752744  0.7903416381336168  1.0000
  H   H17       1.0  0.5885105745434589  0.38859194108725914  0.7475180116143426  1.0000
  H   H18       1.0  0.5997193980081303  0.2795432514632896  0.7475180116143426  1.0000
  O   O26       1.0  0.3981565702966411  0.2865850301978011  0.7949710825756797  1.0000
  H   H19       1.0  0.39716730502198505  0.34138772139319873  0.7521474560564055  1.0000
  H   H20       1.0  0.3991458355712971  0.23178233900240353  0.7521474560564055  1.0000
