data_image0
_chemical_formula_structural       Ca6Si4Al2O17H2OH2OH2OH2OH2OH2OH2OH2OH2OH2
_chemical_formula_sum              "Ca6 Si4 Al2 O26 H20"
_cell_length_a       10.0
_cell_length_b       10.0
_cell_length_c       18.0
_cell_angle_alpha    90.0
_cell_angle_beta     90.0
_cell_angle_gamma    90.0

_space_group_name_H-M_alt    "P 1"
_space_group_IT_number       1

loop_
  _space_group_symop_operation_xyz
  'x, y, z'

loop_
  _atom_site_type_symbol
  _atom_site_label
  _atom_site_symmetry_multiplicity
  _atom_site_fract_x
  _atom_site_fract_y
  _atom_site_fract_z
  _atom_site_occupancy
  Ca  Ca1       1.0  0.535208340241056  0.6957447166596242  0.4133639199094625  1.0000
  Ca  Ca2       1.0  0.6391991316345934  0.25205263025859787  0.03157580596658389  1.0000
  Ca  Ca3       1.0  0.020515698382299268  0.6857169825452815  0.27119936154661267  1.0000
  Ca  Ca4       1.0  0.6644000375062634  0.07344853024512682  0.3785238446790414  1.0000
  Ca  Ca5       1.0  0.8008692428208836  0.4310945606608796  0.20537295785654044  1.0000
  Ca  Ca6       1.0  0.31007234302656744  0.35510034006548447  0.4191757914321534  1.0000
  Si  Si1       1.0  0.5695386365539574  0.3510367746794882  0.3409829826721523  1.0000
  Si  Si2       1.0  0.10202641000013069  0.4173300592316321  0.3050593176929473  1.0000
  Si  Si3       1.0  0.35604294111632495  0.7885534156536032  0.27191649422469955  1.0000
  Si  Si4       1.0  0.47668255499778867  0.4904263257020729  0.0038417600132768783  1.0000
  Al  Al1       1.0  0.6386491205885604  0.250165753956776  0.020583185054410206  1.0000
  Al  Al2       1.0  0.6644632079894363  0.7777875082614658  0.26269974174550975  1.0000
  O   O1        1.0  0.49071270090987645  0.21946425116167415  0.3647122594291244  1.0000
  O   O2        1.0  0.17132030042912785  0.2824892743913694  0.3284739344845281  1.0000
  O   O3        1.0  0.2157689811455446  0.7681328730263476  0.23257190767561725  1.0000
  O   O4        1.0  0.6378459455275124  0.4651599022021623  0.023832850838088452  1.0000
  O   O5        1.0  0.7497332669306012  0.2687323280751498  0.11659560700441991  1.0000
  O   O6        1.0  0.6664172993385292  0.8587319799694342  0.3481070159260021  1.0000
  O   O7        1.0  0.7147297330220019  0.328161741055158  0.3079107353211788  1.0000
  O   O8        1.0  0.018060297369878044  0.449168692270208  0.23104061296025488  1.0000
  O   O9        1.0  0.49843082603101296  0.7920951006602167  0.2273235439243242  1.0000
  O   O10       1.0  0.4488794815387522  0.3360472029572296  0.9720100160411684  1.0000
  O   O11       1.0  0.6903140625542568  0.16272697238280684  0.9374929614108418  1.0000
  O   O12       1.0  0.7834996829804179  0.6588484735019762  0.24293434692771576  1.0000
  O   O13       1.0  0.49437914104977027  0.48728852289752456  0.35871224716805944  1.0000
  O   O14       1.0  0.1145916109494068  0.5428822682991263  0.35906173823268683  1.0000
  O   O15       1.0  0.3667396327021559  0.7958212274454768  0.35954974661130445  1.0000
  O   O16       1.0  0.4344352380021838  0.6137456705230042  0.9540811360398895  1.0000
  O   O17       1.0  0.21394581084619038  0.05228711844832654  0.7069214991823533  1.0000
  H   H1        1.0  0.286403788051639  0.02830422349161455  0.6737932214045754  1.0000
  H   H2        1.0  0.14148783364074172  0.07627001340503854  0.6737932214045754  1.0000
  O   O18       1.0  0.42704095701433503  0.3371674607549098  0.6884683262772193  1.0000
  H   H3        1.0  0.3566236399820908  0.30772702643083083  0.6553400484994415  1.0000
  H   H4        1.0  0.4974582740465793  0.36660789507898867  0.6553400484994415  1.0000
  O   O19       1.0  0.3833958997349618  0.16887441125611824  0.8435032713747198  1.0000
  H   H5        1.0  0.3880958082493228  0.09269535526848711  0.810374993596942  1.0000
  H   H6        1.0  0.3786959912206008  0.24505346724374935  0.810374993596942  1.0000
  O   O20       1.0  0.8216834630797915  0.05032739765342294  0.8774517773942654  1.0000
  H   H7        1.0  0.8953281047037532  0.07037245867324099  0.8443234996164876  1.0000
  H   H8        1.0  0.7480388214558297  0.03028233663360488  0.8443234996164876  1.0000
  O   O21       1.0  0.10772568280124002  0.4370171175946389  0.7332448970802466  1.0000
  H   H9        1.0  0.17173405142006534  0.47858954184397257  0.7001166193024687  1.0000
  H   H10       1.0  0.043717314182414736  0.3954446933453053  0.7001166193024687  1.0000
  O   O22       1.0  0.3762790637566325  0.9326080990609459  0.7529654035824194  1.0000
  H   H11       1.0  0.4483479834096009  0.9577359428057637  0.7198371258046415  1.0000
  H   H12       1.0  0.30421014410366404  0.9074802553161281  0.7198371258046415  1.0000
  O   O23       1.0  0.6591384539501424  0.29134045659646296  0.7847094284060203  1.0000
  H   H13       1.0  0.6162047430129111  0.2282370955420131  0.7515811506282424  1.0000
  H   H14       1.0  0.7020721648873738  0.3544438176509129  0.7515811506282424  1.0000
  O   O24       1.0  0.46463441127827576  0.8922351767372536  0.9011333277979068  1.0000
  H   H15       1.0  0.39457648228507725  0.8619494656444964  0.8680050500201291  1.0000
  H   H16       1.0  0.5346923402714743  0.9225208878300108  0.8680050500201291  1.0000
  O   O25       1.0  0.48687912743883727  0.41413734191327106  0.9465774272125826  1.0000
  H   H17       1.0  0.4714369207599838  0.33939193426773356  0.9134491494348049  1.0000
  H   H18       1.0  0.5023213341176908  0.48888274955880856  0.9134491494348049  1.0000
  O   O26       1.0  0.5247740697597149  0.6856746456105961  0.7972417792523727  1.0000
  H   H19       1.0  0.48210013924387374  0.6223953175046565  0.7641135014745949  1.0000
  H   H20       1.0  0.567448000275556  0.7489539737165356  0.7641135014745949  1.0000
