data_image0
_chemical_formula_structural       Si6Na2Ca2O17H2OH2OH2OH2OH2OH2OH2OH2OH2OH2
_chemical_formula_sum              "Si6 Na2 Ca2 O26 H20"
_cell_length_a       14.999999999999996
_cell_length_b       14.999999999999996
_cell_length_c       14.999999999999996
_cell_angle_alpha    90.0
_cell_angle_beta     90.0
_cell_angle_gamma    90.0

_space_group_name_H-M_alt    "P 1"
_space_group_IT_number       1

loop_
  _space_group_symop_operation_xyz
  'x, y, z'

loop_
  _atom_site_type_symbol
  _atom_site_label
  _atom_site_symmetry_multiplicity
  _atom_site_fract_x
  _atom_site_fract_y
  _atom_site_fract_z
  _atom_site_occupancy
  Si  Si1       1.0  0.17502926750160144  0.31473500958046685  0.40455204456092303  1.0000
  Si  Si2       1.0  0.2317857920560691  0.32450604523486754  0.24165891892580088  1.0000
  Si  Si3       1.0  0.27892393585779657  0.24352371591068944  0.06171075375794123  1.0000
  Si  Si4       1.0  0.40818552530632546  0.3337979430775038  0.6028239689593755  1.0000
  Si  Si5       1.0  0.3834226108191293  0.5292376768515593  0.5197491616269757  1.0000
  Si  Si6       1.0  0.19771786743277456  0.1332272824658653  0.4994332980511481  1.0000
  Na  Na1       1.0  0.3789682627707964  0.22157631436537686  0.4082784460827873  1.0000
  Na  Na2       1.0  0.21988485986399178  0.51130246750084  0.34521074228401233  1.0000
  Ca  Ca1       1.0  0.09083044234096496  0.281351891773028  0.2875132224576528  1.0000
  Ca  Ca2       1.0  0.3848861797319647  0.09503923754622227  0.5897027103561632  1.0000
  O   O1        1.0  0.40324762053449037  0.6141361598684412  0.5785468576251284  1.0000
  O   O2        1.0  0.624861754017959  0.06964325603800514  0.2573770048128261  1.0000
  O   O3        1.0  0.19274643502392969  0.24867567859299394  0.4889566932512292  1.0000
  O   O4        1.0  0.3389189705665353  0.5266670558109477  0.4259818068203547  1.0000
  O   O5        1.0  0.2794207162644948  0.2571091825828415  0.17152521642723229  1.0000
  O   O6        1.0  0.21020946390291131  0.42333635666990305  0.215932506429127  1.0000
  O   O7        1.0  0.3218292651472341  0.3325988266415094  0.019058189983986378  1.0000
  O   O8        1.0  0.29762517135877353  0.10781496782296503  0.46964521148776733  1.0000
  O   O9        1.0  0.3365656899986931  0.3222168408474016  0.010499280981104201  1.0000
  O   O10       1.0  0.2847922931162135  0.14793579159617576  0.01987047436510172  1.0000
  O   O11       1.0  0.12660575348400083  0.2752663326092372  0.30184111792402085  1.0000
  O   O12       1.0  0.4275459927541407  0.24448379029202097  0.5511913356308097  1.0000
  O   O13       1.0  0.41148231064612656  0.43364148323486124  0.5638518422112238  1.0000
  O   O14       1.0  0.6106911739148352  0.14276243235565636  0.22134794458949666  1.0000
  O   O15       1.0  0.2752905045328197  0.3119524428954768  0.3445067052681043  1.0000
  O   O16       1.0  0.805196273859414  0.41027491303889496  0.4269482029245849  1.0000
  O   O17       1.0  0.6307178026940627  0.4198961481918621  0.8348239678709851  1.0000
  H   H1        1.0  0.6276823427110226  0.4706881255647835  0.7950700345376517  1.0000
  H   H2        1.0  0.6337532626771029  0.36910417081894065  0.7950700345376517  1.0000
  O   O18       1.0  0.5048487766668756  0.17207856270224467  0.7575649712964014  1.0000
  H   H3        1.0  0.5016508308441785  0.22286056862240397  0.717811037963068  1.0000
  H   H4        1.0  0.5080467224895726  0.12129655678208535  0.717811037963068  1.0000
  O   O19       1.0  0.11307781771258398  0.4562687057953806  0.7394925134652304  1.0000
  H   H5        1.0  0.10971367472672558  0.5070399725190965  0.6997385801318968  1.0000
  H   H6        1.0  0.11644196069844236  0.4054974390716647  0.6997385801318968  1.0000
  O   O20       1.0  0.31134571295685654  0.25567572117062776  0.878317781937456  1.0000
  H   H7        1.0  0.30879935982435874  0.3064945667742483  0.8385638486041226  1.0000
  H   H8        1.0  0.3138920660893543  0.20485687556700727  0.8385638486041226  1.0000
  O   O21       1.0  0.8383970922239242  0.7035683136765171  0.250606150468407  1.0000
  H   H9        1.0  0.8338503907648884  0.75424736742264  0.21085221713507368  1.0000
  H   H10       1.0  0.84294379368296  0.6528892599303943  0.21085221713507368  1.0000
  O   O22       1.0  0.25950881966204536  0.8530617091220928  0.6596945211320523  1.0000
  H   H11       1.0  0.2574266260358601  0.9039016880015444  0.6199405877987189  1.0000
  H   H12       1.0  0.26159101328823064  0.8022217302426413  0.6199405877987189  1.0000
  O   O23       1.0  0.47368450502090964  0.8189913272445308  0.47623611976258723  1.0000
  H   H13       1.0  0.46896106555798506  0.8696542140789789  0.4364821864292539  1.0000
  H   H14       1.0  0.4784079444838343  0.7683284404100829  0.4364821864292539  1.0000
  O   O24       1.0  0.8861359839793903  0.5781955992399065  0.8269700353139061  1.0000
  H   H15       1.0  0.8832088927238915  0.6289939370034788  0.7872161019805726  1.0000
  H   H16       1.0  0.8890630752348891  0.5273972614763341  0.7872161019805726  1.0000
  O   O25       1.0  0.6759570584022291  0.6330762248206762  0.4601243207363951  1.0000
  H   H17       1.0  0.6754847046076116  0.6839566322940122  0.42037038740306176  1.0000
  H   H18       1.0  0.6764294121968466  0.5821958173473402  0.42037038740306176  1.0000
  O   O26       1.0  0.7277604982859965  0.3499318737442908  0.27681574640910833  1.0000
  H   H19       1.0  0.7271312117529828  0.40081058226975724  0.23706181307577504  1.0000
  H   H20       1.0  0.7283897848190102  0.29905316521882436  0.23706181307577504  1.0000
