data_image0
_chemical_formula_structural       FeBFeAlSiO
_chemical_formula_sum              "Fe2 B1 Al1 Si1 O1"
_cell_length_a       2.972930470102998
_cell_length_b       2.9723448140197015
_cell_length_c       8.779986381530762
_cell_angle_alpha    80.25797317017344
_cell_angle_beta     80.19174846369627
_cell_angle_gamma    59.89100570585227

_space_group_name_H-M_alt    "P 1"
_space_group_IT_number       1

loop_
  _space_group_symop_operation_xyz
  'x, y, z'

loop_
  _atom_site_type_symbol
  _atom_site_label
  _atom_site_symmetry_multiplicity
  _atom_site_fract_x
  _atom_site_fract_y
  _atom_site_fract_z
  _atom_site_occupancy
  Fe  Fe1       1.0  0.4835640192031861  0.12687095999717712  0.9890129566192626  1.0000
  B   B1        1.0  0.11110853403806688  0.753700315952301  0.10526210069656372  1.0000
  Fe  Fe2       1.0  0.7396384477615356  0.3833313584327698  0.22264917194843292  1.0000
  Al  Al1       1.0  0.25567805767059326  0.899707019329071  0.667319118976593  1.0000
  Si  Si1       1.0  0.009307834319770336  0.6524419784545898  0.41328293085098267  1.0000
  O   O1        1.0  0.5626219511032104  0.20435553789138794  0.7519686818122864  1.0000
