data_image0
_chemical_formula_structural       OCaFeAlCaSiOAlO6
_chemical_formula_sum              "O8 Ca2 Fe1 Al2 Si1"
_cell_length_a       5.487750175554091
_cell_length_b       5.48298616060033
_cell_length_c       6.321695327758789
_cell_angle_alpha    89.97180065361084
_cell_angle_beta     90.02677001523193
_cell_angle_gamma    111.89576475911954

_space_group_name_H-M_alt    "P 1"
_space_group_IT_number       1

loop_
  _space_group_symop_operation_xyz
  'x, y, z'

loop_
  _atom_site_type_symbol
  _atom_site_label
  _atom_site_symmetry_multiplicity
  _atom_site_fract_x
  _atom_site_fract_y
  _atom_site_fract_z
  _atom_site_occupancy
  O   O1        1.0  0.26359787583351135  0.2762923240661621  0.6841899156570435  1.0000
  Ca  Ca1       1.0  0.5247000455856323  0.015334744937717915  0.690433144569397  1.0000
  Fe  Fe1       1.0  0.8689906001091003  0.671044111251831  0.938557505607605  1.0000
  Al  Al1       1.0  0.17134004831314087  0.3688152432441711  0.43719449639320374  1.0000
  Ca  Ca2       1.0  0.5244972109794617  0.01601998135447502  0.18558262288570404  1.0000
  Si  Si1       1.0  0.8864506483078003  0.6534214615821838  0.43780624866485596  1.0000
  O   O2        1.0  0.26371923089027405  0.2769173979759216  0.19145262241363525  1.0000
  Al  Al2       1.0  0.16579480469226837  0.3747340142726898  0.9373591542243958  1.0000
  O   O3        1.0  0.8143501877784729  0.26877397298812866  0.9385190606117249  1.0000
  O   O4        1.0  0.2159474641084671  0.723376452922821  0.4379468560218811  1.0000
  O   O5        1.0  0.8170122504234314  0.32403287291526794  0.4379331171512604  1.0000
  O   O6        1.0  0.7838713526725769  0.7563479542732239  0.229561910033226  1.0000
  O   O7        1.0  0.2712629437446594  0.7259420156478882  0.938289999961853  1.0000
  O   O8        1.0  0.7847731113433838  0.7561191320419312  0.646631121635437  1.0000
