data_image0
_chemical_formula_structural       AlOCaSiLaFeO4
_chemical_formula_sum              "Al1 O5 Ca1 Si1 La1 Fe1"
_cell_length_a       5.413301397125748
_cell_length_b       5.422867638523754
_cell_length_c       5.3567047119140625
_cell_angle_alpha    119.48907937168701
_cell_angle_beta     119.41796203850718
_cell_angle_gamma    91.93475584342578

_space_group_name_H-M_alt    "P 1"
_space_group_IT_number       1

loop_
  _space_group_symop_operation_xyz
  'x, y, z'

loop_
  _atom_site_type_symbol
  _atom_site_label
  _atom_site_symmetry_multiplicity
  _atom_site_fract_x
  _atom_site_fract_y
  _atom_site_fract_z
  _atom_site_occupancy
  Al  Al1       1.0  0.6449129581451416  0.03930363804101944  0.291533648967743  1.0000
  O   O1        1.0  0.37357112765312195  0.7980616688728333  0.2922240197658539  1.0000
  Ca  Ca1       1.0  0.38103148341178894  0.3031138479709625  0.7923387289047241  1.0000
  Si  Si1       1.0  0.11803021281957626  0.567081868648529  0.2918555438518525  1.0000
  La  La1       1.0  0.8813254833221436  0.8034285306930542  0.7918448448181152  1.0000
  Fe  Fe1       1.0  0.37073472142219543  0.31337878108024597  0.2924748659133911  1.0000
  O   O2        1.0  0.8872039914131165  0.3114902377128601  0.8059769868850708  1.0000
  O   O3        1.0  0.8884410262107849  0.7958007454872131  0.2920106053352356  1.0000
  O   O4        1.0  0.8865777850151062  0.31133097410202026  0.2921276092529297  1.0000
  O   O5        1.0  0.37306922674179077  0.7974094748497009  0.7781668305397034  1.0000
