data_image0
_chemical_formula_structural       CaOCaOSiOAlO3
_chemical_formula_sum              "Ca2 O6 Si1 Al1"
_cell_length_a       5.254924253403688
_cell_length_b       5.2534998210315775
_cell_length_c       5.255098342895508
_cell_angle_alpha    59.71021145488617
_cell_angle_beta     59.64019606479269
_cell_angle_gamma    59.658438840488465

_space_group_name_H-M_alt    "P 1"
_space_group_IT_number       1

loop_
  _space_group_symop_operation_xyz
  'x, y, z'

loop_
  _atom_site_type_symbol
  _atom_site_label
  _atom_site_symmetry_multiplicity
  _atom_site_fract_x
  _atom_site_fract_y
  _atom_site_fract_z
  _atom_site_occupancy
  Ca  Ca1       1.0  0.5713427066802979  0.5675944089889526  0.9860613346099854  1.0000
  O   O1        1.0  0.06479832530021663  0.5751291513442994  0.4782220423221588  1.0000
  Ca  Ca2       1.0  0.07135794311761856  0.06791503727436066  0.48578181862831116  1.0000
  O   O2        1.0  0.5774902105331421  0.06011246144771576  0.4804289937019348  1.0000
  Si  Si1       1.0  0.8216236233711243  0.8182176351547241  0.23586003482341766  1.0000
  O   O3        1.0  0.580020010471344  0.5746347308158875  0.47760868072509766  1.0000
  Al  Al1       1.0  0.3213449716567993  0.3181934952735901  0.7359843254089355  1.0000
  O   O4        1.0  0.0628766119480133  0.06232074648141862  0.9939817786216736  1.0000
  O   O5        1.0  0.5777736902236938  0.061700716614723206  0.9932564496994019  1.0000
  O   O6        1.0  0.06469298154115677  0.5768123269081116  0.9917226433753967  1.0000
