data_image0
_chemical_formula_structural       Ca3O2Si2O2SiO2CaO2SiO4
_chemical_formula_sum              "Ca4 O12 Si4"
_cell_length_a       5.773961999915579
_cell_length_b       5.806038508236756
_cell_length_c       10.793906211853027
_cell_angle_alpha    78.432912844065
_cell_angle_beta     71.65593762582671
_cell_angle_gamma    60.306287606839234

_space_group_name_H-M_alt    "P 1"
_space_group_IT_number       1

loop_
  _space_group_symop_operation_xyz
  'x, y, z'

loop_
  _atom_site_type_symbol
  _atom_site_label
  _atom_site_symmetry_multiplicity
  _atom_site_fract_x
  _atom_site_fract_y
  _atom_site_fract_z
  _atom_site_occupancy
  Ca  Ca1       1.0  0.3881213366985321  0.2562540471553802  0.9367334246635437  1.0000
  Ca  Ca2       1.0  0.598026216030121  0.574965238571167  0.17840555310249326  1.0000
  Ca  Ca3       1.0  0.9975883960723879  0.9148802161216735  0.0536746010184288  1.0000
  O   O1        1.0  0.4447234869003297  0.6261371970176697  0.9307725429534912  1.0000
  O   O2        1.0  0.36747410893440247  0.6201751232147217  0.4044957160949707  1.0000
  Si  Si1       1.0  0.2442029714584351  0.2386200726032257  0.22287169098854065  1.0000
  Si  Si2       1.0  0.8065447211265564  0.9351353645324706  0.6566746234893799  1.0000
  O   O3        1.0  0.18091143667697906  0.17005252838134766  0.3849349617958069  1.0000
  O   O4        1.0  0.5535274744033813  0.20880241692066193  0.17119300365447998  1.0000
  Si  Si3       1.0  0.7549574971199036  0.593695878982544  0.8825334310531616  1.0000
  O   O5        1.0  0.8209211826324463  0.9487269520759583  0.4925646483898163  1.0000
  O   O6        1.0  0.5252677798271179  0.17371810972690582  0.7192739844322205  1.0000
  Ca  Ca4       1.0  0.29348939657211304  0.29789087176322937  0.5553023219108582  1.0000
  O   O7        1.0  0.9678550362586976  0.30719253420829773  0.9307148456573486  1.0000
  O   O8        1.0  0.10347320884466171  0.9527441263198853  0.6146583557128906  1.0000
  Si  Si4       1.0  0.1459745615720749  0.9053781032562256  0.4538203477859497  1.0000
  O   O9        1.0  0.7640089988708496  0.8274003863334656  0.9417438507080078  1.0000
  O   O10       1.0  0.8685033917427063  0.6318424344062805  0.7162935137748718  1.0000
  O   O11       1.0  0.23695118725299838  0.003963208757340908  0.16252827644348145  1.0000
  O   O12       1.0  0.01875273697078228  0.5256688594818115  0.1823903918266296  1.0000
