data_image0
_chemical_formula_structural       CaOCa2OSiO4SiO
_chemical_formula_sum              "Ca3 O7 Si2"
_cell_length_a       5.393267739719113
_cell_length_b       5.273525248298066
_cell_length_c       7.065901279449463
_cell_angle_alpha    77.09862219761676
_cell_angle_beta     65.09114211853654
_cell_angle_gamma    66.2306491831679

_space_group_name_H-M_alt    "P 1"
_space_group_IT_number       1

loop_
  _space_group_symop_operation_xyz
  'x, y, z'

loop_
  _atom_site_type_symbol
  _atom_site_label
  _atom_site_symmetry_multiplicity
  _atom_site_fract_x
  _atom_site_fract_y
  _atom_site_fract_z
  _atom_site_occupancy
  Ca  Ca1       1.0  0.6137415170669556  0.9116958379745483  0.45555514097213745  1.0000
  O   O1        1.0  0.6681060194969176  0.44340464472770685  0.43742048740386963  1.0000
  Ca  Ca2       1.0  0.4613657295703888  0.6616731882095338  0.12314945459365845  1.0000
  Ca  Ca3       1.0  0.1894182562828064  0.5433856248855591  0.6806743144989014  1.0000
  O   O2        1.0  0.049043506383895874  0.9137231111526489  0.46949848532676697  1.0000
  Si  Si1       1.0  0.9814758896827698  0.07278087735176086  0.9581560492515564  1.0000
  O   O3        1.0  0.2880184650421143  0.8782321214675903  0.7937930822372437  1.0000
  O   O4        1.0  0.7815344333648682  0.8833303451538086  0.09804895520210259  1.0000
  O   O5        1.0  0.24339555203914642  0.3427785038948059  0.37139078974723816  1.0000
  O   O6        1.0  0.10956144332885742  0.15784041583538055  0.11163361370563507  1.0000
  Si  Si2       1.0  0.01288143265992403  0.23029331862926483  0.35681861639022827  1.0000
  O   O7        1.0  0.8157750964164734  0.37207725644111633  0.8621245622634888  1.0000
