data_image0
_chemical_formula_structural       CaClO2
_chemical_formula_sum              "Ca1 Cl1 O2"
_cell_length_a       3.686484143401936
_cell_length_b       3.6911755992411908
_cell_length_c       6.122972011566162
_cell_angle_alpha    72.62341330266669
_cell_angle_beta     72.63425290189552
_cell_angle_gamma    60.16431001832184

_space_group_name_H-M_alt    "P 1"
_space_group_IT_number       1

loop_
  _space_group_symop_operation_xyz
  'x, y, z'

loop_
  _atom_site_type_symbol
  _atom_site_label
  _atom_site_symmetry_multiplicity
  _atom_site_fract_x
  _atom_site_fract_y
  _atom_site_fract_z
  _atom_site_occupancy
  Ca  Ca1       1.0  0.23303046822547915  0.8982362747192383  0.25758275389671326  1.0000
  Cl  Cl1       1.0  0.7336892485618591  0.3978680074214936  0.7571212649345398  1.0000
  O   O1        1.0  0.6282913684844971  0.29368036985397344  0.07226842641830444  1.0000
  O   O2        1.0  0.8383613824844361  0.5031348466873169  0.44152092933654785  1.0000
