data_image0
_chemical_formula_structural       SiCa2O3SiO4
_chemical_formula_sum              "Si2 Ca2 O7"
_cell_length_a       4.928904489393344
_cell_length_b       5.825510611153627
_cell_length_c       5.8316874504089355
_cell_angle_alpha    106.30685350150408
_cell_angle_beta     96.99481291992372
_cell_angle_gamma    96.96025839120436

_space_group_name_H-M_alt    "P 1"
_space_group_IT_number       1

loop_
  _space_group_symop_operation_xyz
  'x, y, z'

loop_
  _atom_site_type_symbol
  _atom_site_label
  _atom_site_symmetry_multiplicity
  _atom_site_fract_x
  _atom_site_fract_y
  _atom_site_fract_z
  _atom_site_occupancy
  Si  Si1       1.0  0.8307712078094482  0.07261300086975098  0.4499695003032685  1.0000
  Ca  Ca1       1.0  0.42504408955574036  0.5510562658309937  0.543744683265686  1.0000
  Ca  Ca2       1.0  0.42508745193481445  0.1669074147939682  0.9280390739440919  1.0000
  O   O1        1.0  0.12593354284763336  0.22661575675010678  0.6034732460975647  1.0000
  O   O2        1.0  0.7244769930839539  0.49117428064346313  0.8668920397758485  1.0000
  O   O3        1.0  0.6499754190444946  0.23420839011669162  0.3236384093761444  1.0000
  Si  Si2       1.0  0.01887519285082817  0.6445410251617432  0.02214524149894718  1.0000
  O   O4        1.0  0.6495288014411926  0.947483479976654  0.6118308901786804  1.0000
  O   O5        1.0  0.20112022757530212  0.48319783806800837  0.1475948840379715  1.0000
  O   O6        1.0  0.20061637461185455  0.7714013457298279  0.8611191511154176  1.0000
  O   O7        1.0  0.9254397749900818  0.8579989075660707  0.23776902258396157  1.0000
