data_image0
_chemical_formula_structural       CaSiCa2SiOCa3O
_chemical_formula_sum              "Ca6 Si2 O2"
_cell_length_a       6.065451037899879
_cell_length_b       6.073793339761403
_cell_length_c       6.468645095825195
_cell_angle_alpha    99.83125371340222
_cell_angle_beta     99.68452056760081
_cell_angle_gamma    105.06932067651971

_space_group_name_H-M_alt    "P 1"
_space_group_IT_number       1

loop_
  _space_group_symop_operation_xyz
  'x, y, z'

loop_
  _atom_site_type_symbol
  _atom_site_label
  _atom_site_symmetry_multiplicity
  _atom_site_fract_x
  _atom_site_fract_y
  _atom_site_fract_z
  _atom_site_occupancy
  Ca  Ca1       1.0  0.7601799368858337  0.05529766902327537  0.7733981609344482  1.0000
  Si  Si1       1.0  0.812463104724884  0.5587567090988159  0.04422924295067787  1.0000
  Ca  Ca2       1.0  0.19180519878864288  0.3897885978221893  0.2606855034828186  1.0000
  Ca  Ca3       1.0  0.3081783652305603  0.5076706409454346  0.7723616361618042  1.0000
  Si  Si2       1.0  0.14012500643730158  0.8869524598121642  0.9895376563072205  1.0000
  O   O1        1.0  0.9749463796615601  0.22208353877067566  0.5167891979217529  1.0000
  Ca  Ca4       1.0  0.6434701085090637  0.9365895390510558  0.2613597810268402  1.0000
  Ca  Ca5       1.0  0.1983510553836822  0.9448867440223693  0.49759769439697266  1.0000
  Ca  Ca6       1.0  0.7529020309448242  0.49943709373474116  0.5355872511863708  1.0000
  O   O2        1.0  0.47542282938957214  0.7215963006019592  0.5166540741920471  1.0000
