data_image0
_chemical_formula_structural       Ca2Si2O6
_chemical_formula_sum              "Ca2 Si2 O6"
_cell_length_a       4.737537991462203
_cell_length_b       5.835132967978416
_cell_length_c       5.4599809646606445
_cell_angle_alpha    74.95693976671538
_cell_angle_beta     77.57125713818702
_cell_angle_gamma    87.00205478332614

_space_group_name_H-M_alt    "P 1"
_space_group_IT_number       1

loop_
  _space_group_symop_operation_xyz
  'x, y, z'

loop_
  _atom_site_type_symbol
  _atom_site_label
  _atom_site_symmetry_multiplicity
  _atom_site_fract_x
  _atom_site_fract_y
  _atom_site_fract_z
  _atom_site_occupancy
  Ca  Ca1       1.0  0.23798738420009613  0.952881932258606  0.6838592290878296  1.0000
  Ca  Ca2       1.0  0.7192649245262146  0.3662589490413665  0.6924440860748291  1.0000
  Si  Si1       1.0  0.3066982924938202  0.5866143703460693  0.24861472845077517  1.0000
  Si  Si2       1.0  0.7868347764015198  0.9204432964324951  0.2742067277431488  1.0000
  O   O1        1.0  0.7911006212234497  0.010775702074170113  0.5314539074897766  1.0000
  O   O2        1.0  0.44467467069625854  0.8268269896507263  0.30324268341064453  1.0000
  O   O3        1.0  0.9104649424552917  0.09402146190404892  0.9942193031311035  1.0000
  O   O4        1.0  0.9541069865226746  0.654900848865509  0.30637747049331665  1.0000
  O   O5        1.0  0.3268447816371918  0.3554705083370209  0.48755767941474915  1.0000
  O   O6        1.0  0.42065995931625366  0.5882810354232788  0.9458330273628235  1.0000
