data_image0
_chemical_formula_structural       Ca6OSi2O
_chemical_formula_sum              "Ca6 O2 Si2"
_cell_length_a       5.963160755368163
_cell_length_b       6.408744285934492
_cell_length_c       6.556272506713867
_cell_angle_alpha    89.96956034939387
_cell_angle_beta     89.983726162499
_cell_angle_gamma    110.79827634741464

_space_group_name_H-M_alt    "P 1"
_space_group_IT_number       1

loop_
  _space_group_symop_operation_xyz
  'x, y, z'

loop_
  _atom_site_type_symbol
  _atom_site_label
  _atom_site_symmetry_multiplicity
  _atom_site_fract_x
  _atom_site_fract_y
  _atom_site_fract_z
  _atom_site_occupancy
  Ca  Ca1       1.0  0.3915865421295166  0.9431178569793701  0.08783141523599625  1.0000
  Ca  Ca2       1.0  0.1915225386619568  0.3599280416965485  0.32593509554862976  1.0000
  Ca  Ca3       1.0  0.9082279801368713  0.04524100571870804  0.8259736895561218  1.0000
  Ca  Ca4       1.0  0.7080447673797607  0.4623912274837494  0.06416714191436768  1.0000
  Ca  Ca5       1.0  0.3902859389781952  0.9436416029930115  0.564175546169281  1.0000
  Ca  Ca6       1.0  0.7099789381027222  0.46291616559028625  0.5873871445655823  1.0000
  O   O1        1.0  0.5007316470146179  0.24567945301532748  0.32573798298835754  1.0000
  Si  Si1       1.0  0.23708054423332214  0.5239375233650208  0.8253549933433533  1.0000
  Si  Si2       1.0  0.8603782057762146  0.8813770413398743  0.32656580209732056  1.0000
  O   O2        1.0  0.5992161631584167  0.16073936223983765  0.8265031576156616  1.0000
