data_image0
_chemical_formula_structural       Ge2PdCe4PdCe2PdGePdGePd3Ge
_chemical_formula_sum              "Ge5 Pd7 Ce6"
_cell_length_a       7.546357071949182
_cell_length_b       7.572870739019142
_cell_length_c       8.474052429199219
_cell_angle_alpha    116.30763091687288
_cell_angle_beta     114.23977701683573
_cell_angle_gamma    90.10210006564317

_space_group_name_H-M_alt    "P 1"
_space_group_IT_number       1

loop_
  _space_group_symop_operation_xyz
  'x, y, z'

loop_
  _atom_site_type_symbol
  _atom_site_label
  _atom_site_symmetry_multiplicity
  _atom_site_fract_x
  _atom_site_fract_y
  _atom_site_fract_z
  _atom_site_occupancy
  Ge  Ge1       1.0  0.9492923617362976  0.3979591727256775  0.43001851439476013  1.0000
  Ge  Ge2       1.0  0.5737441778182983  0.5363667011260986  0.7563804984092712  1.0000
  Pd  Pd1       1.0  0.28954076766967773  0.5404324531555176  0.47163569927215576  1.0000
  Ce  Ce1       1.0  0.8385133743286133  0.9807656407356263  0.0016196966171264648  1.0000
  Ce  Ce2       1.0  0.24670849740505219  0.34143078327178955  0.7962363958358765  1.0000
  Ce  Ce3       1.0  0.9270666837692261  0.5260732769966125  0.1108885407447815  1.0000
  Ce  Ce4       1.0  0.6019309759140015  0.16246168315410617  0.41907528042793274  1.0000
  Pd  Pd2       1.0  0.5947681069374084  0.27238836884498596  0.12008398771286011  1.0000
  Ce  Ce5       1.0  0.6250669360160828  0.6701772809028625  0.4321702718734741  1.0000
  Ce  Ce6       1.0  0.2461428940296173  0.8552474975585938  0.8031389713287354  1.0000
  Pd  Pd3       1.0  0.9140675067901611  0.5802140831947327  0.7523928880691528  1.0000
  Ge  Ge3       1.0  0.28615644574165344  0.8852548003196717  0.4704800546169282  1.0000
  Pd  Pd4       1.0  0.593786358833313  0.15085966885089874  0.7571780681610107  1.0000
  Ge  Ge4       1.0  0.24716566503047943  0.2620062530040741  0.1256420761346817  1.0000
  Pd  Pd5       1.0  0.25596243143081665  0.771164894104004  0.12256349623203282  1.0000
  Pd  Pd6       1.0  0.1739107370376587  0.13955798745155334  0.350225567817688  1.0000
  Pd  Pd7       1.0  0.9262523651123047  0.9353558421134949  0.4226991832256317  1.0000
  Ge  Ge5       1.0  0.5862069725990295  0.7516440153121948  0.09589815884828568  1.0000
