data_image0
_chemical_formula_structural       BaNBaMoBaVNVMoN7
_chemical_formula_sum              "Ba3 N9 Mo2 V2"
_cell_length_a       6.012788181080568
_cell_length_b       6.333882786196262
_cell_length_c       7.437356472015381
_cell_angle_alpha    88.85983209764251
_cell_angle_beta     89.93246558570834
_cell_angle_gamma    89.88961981161589

_space_group_name_H-M_alt    "P 1"
_space_group_IT_number       1

loop_
  _space_group_symop_operation_xyz
  'x, y, z'

loop_
  _atom_site_type_symbol
  _atom_site_label
  _atom_site_symmetry_multiplicity
  _atom_site_fract_x
  _atom_site_fract_y
  _atom_site_fract_z
  _atom_site_occupancy
  Ba  Ba1       1.0  0.3496776223182678  0.44431477785110474  0.8244497179985046  1.0000
  N   N1        1.0  0.349752277135849  0.297866553068161  0.2173873782157898  1.0000
  Ba  Ba2       1.0  0.8500269055366516  0.2612241506576538  0.19622103869915009  1.0000
  Mo  Mo1       1.0  0.34978407621383667  0.13691917061805725  0.43493348360061646  1.0000
  Ba  Ba3       1.0  0.8488271832466125  0.7615054845809935  0.49434712529182434  1.0000
  V   V1        1.0  0.34886738657951355  0.5958572626113892  0.2531014382839203  1.0000
  N   N2        1.0  0.08712659776210785  0.19945178925991058  0.5656989812850952  1.0000
  V   V2        1.0  0.8498616814613342  0.2277572453022003  0.7090864777565002  1.0000
  Mo  Mo2       1.0  0.8486013412475586  0.7290955781936646  0.9807876348495483  1.0000
  N   N3        1.0  0.8493127226829529  0.500073254108429  0.810276210308075  1.0000
  N   N4        1.0  0.6044492125511169  0.6655334830284119  0.13180354237556455  1.0000
  N   N5        1.0  0.3493911027908325  0.8413201570510864  0.41680553555488586  1.0000
  N   N6        1.0  0.8475896120071411  0.011042882688343523  0.8847719430923462  1.0000
  N   N7        1.0  0.3489583134651184  0.6548871994018555  0.5011696815490723  1.0000
  N   N8        1.0  0.09172456711530685  0.6650392413139343  0.13336722552776337  1.0000
  N   N9        1.0  0.616793155670166  0.19740566611289978  0.5621663928031921  1.0000
