data_image0
_chemical_formula_structural       NaLuOLuBiONaO3LuO3
_chemical_formula_sum              "Na2 Lu3 O8 Bi1"
_cell_length_a       6.68347818560006
_cell_length_b       6.698448716183056
_cell_length_c       6.255582809448242
_cell_angle_alpha    98.02712755926093
_cell_angle_beta     110.58642385811888
_cell_angle_gamma    121.40153290049048

_space_group_name_H-M_alt    "P 1"
_space_group_IT_number       1

loop_
  _space_group_symop_operation_xyz
  'x, y, z'

loop_
  _atom_site_type_symbol
  _atom_site_label
  _atom_site_symmetry_multiplicity
  _atom_site_fract_x
  _atom_site_fract_y
  _atom_site_fract_z
  _atom_site_occupancy
  Na  Na1       1.0  0.17444530129432684  0.7757140994071962  0.12334629893302917  1.0000
  Lu  Lu1       1.0  0.8964512348175049  0.966152250766754  0.6102024912834166  1.0000
  O   O1        1.0  0.1640719920396805  0.3849791586399079  0.8894097208976746  1.0000
  Lu  Lu2       1.0  0.86800616979599  0.4516480565071106  0.5798666477203369  1.0000
  Bi  Bi1       1.0  0.1638047695159912  0.30544334650039673  0.21005336940288544  1.0000
  O   O2        1.0  0.15165632963180542  0.8660967350006104  0.7833201289176941  1.0000
  Na  Na2       1.0  0.6101530194282532  0.6229857802391052  0.9981388449668884  1.0000
  O   O3        1.0  0.6182103157043457  0.03922921046614647  0.4292074143886566  1.0000
  O   O4        1.0  0.5949831604957581  0.5366515517234802  0.370795875787735  1.0000
  O   O5        1.0  0.7265554070472717  0.41274788975715637  0.8397959470748901  1.0000
  Lu  Lu3       1.0  0.45924022793769836  0.016015999019145966  0.6906229853630066  1.0000
  O   O6        1.0  0.14589793980121613  0.5572121143341064  0.41841644048690796  1.0000
  O   O7        1.0  0.12835882604122162  0.05530394241213799  0.3942042887210846  1.0000
  O   O8        1.0  0.7673821449279785  0.9744355082511902  0.9089418053627013  1.0000
