data_image0
_chemical_formula_structural       SnBiLiOLi2LaSnO8
_chemical_formula_sum              "Sn2 Bi1 Li3 O9 La1"
_cell_length_a       4.172379522723669
_cell_length_b       8.007405301706351
_cell_length_c       6.860447883605957
_cell_angle_alpha    105.27748230036785
_cell_angle_beta     90.43316628791482
_cell_angle_gamma    104.37051956521817

_space_group_name_H-M_alt    "P 1"
_space_group_IT_number       1

loop_
  _space_group_symop_operation_xyz
  'x, y, z'

loop_
  _atom_site_type_symbol
  _atom_site_label
  _atom_site_symmetry_multiplicity
  _atom_site_fract_x
  _atom_site_fract_y
  _atom_site_fract_z
  _atom_site_occupancy
  Sn  Sn1       1.0  0.2976742386817932  0.5068645477294922  0.8529147505760193  1.0000
  Bi  Bi1       1.0  0.5214036703109741  0.08711396902799606  0.968964695930481  1.0000
  Li  Li1       1.0  0.8162838816642761  0.5516204833984375  0.1608505845069885  1.0000
  O   O1        1.0  0.0861942246556282  0.0444648340344429  0.13529784977436066  1.0000
  Li  Li2       1.0  0.18471232056617737  0.3260539472103119  0.19055648148059845  1.0000
  Li  Li3       1.0  0.7607160806655884  0.4413082003593445  0.5123637318611145  1.0000
  La  La1       1.0  0.07562657445669174  0.08089715242385864  0.4709884524345398  1.0000
  Sn  Sn2       1.0  0.38907504081726074  0.6987113952636719  0.4855021834373474  1.0000
  O   O2        1.0  0.8917040824890137  0.7046807408332825  0.45429137349128723  1.0000
  O   O3        1.0  0.7877000570297241  0.4819732904434204  0.8431809544563292  1.0000
  O   O4        1.0  0.7006177306175232  0.3123934864997864  0.22595062851905823  1.0000
  O   O5        1.0  0.1836831271648407  0.23301412165164948  0.8437907099723816  1.0000
  O   O6        1.0  0.41370946168899536  0.7535146474838257  0.7967915534973145  1.0000
  O   O7        1.0  0.2560986280441284  0.4279049336910248  0.5266532301902771  1.0000
  O   O8        1.0  0.3319056034088135  0.583458662033081  0.17126636207103726  1.0000
  O   O9        1.0  0.5251134634017944  0.9712989330291748  0.5147961974143982  1.0000
