data_image0
_chemical_formula_structural       Ca2OAl3O3SiO4
_chemical_formula_sum              "Ca2 O8 Al3 Si1"
_cell_length_a       5.843100401116337
_cell_length_b       5.297504716250802
_cell_length_c       7.7752838134765625
_cell_angle_alpha    70.01774981692142
_cell_angle_beta     81.52970752049109
_cell_angle_gamma    63.83756317788524

_space_group_name_H-M_alt    "P 1"
_space_group_IT_number       1

loop_
  _space_group_symop_operation_xyz
  'x, y, z'

loop_
  _atom_site_type_symbol
  _atom_site_label
  _atom_site_symmetry_multiplicity
  _atom_site_fract_x
  _atom_site_fract_y
  _atom_site_fract_z
  _atom_site_occupancy
  Ca  Ca1       1.0  0.6208248138427734  0.14734172821044922  0.24022299051284787  1.0000
  Ca  Ca2       1.0  0.1244383901357651  0.9017578959465026  0.7236568927764893  1.0000
  O   O1        1.0  0.7568824887275696  0.1661059409379959  0.5467104315757751  1.0000
  Al  Al1       1.0  0.621608555316925  0.9225114583969116  0.691598117351532  1.0000
  Al  Al2       1.0  0.6204156875610352  0.547791063785553  0.4393537044525146  1.0000
  Al  Al3       1.0  0.12108244001865387  0.2941684424877167  0.9416916966438292  1.0000
  O   O2        1.0  0.8712457418441772  0.6343813538551331  0.30476951599121094  1.0000
  O   O3        1.0  0.3590191602706909  0.09953836351633072  0.8141342401504515  1.0000
  O   O4        1.0  0.37000009417533875  0.5941479206085205  0.3049687147140503  1.0000
  Si  Si1       1.0  0.12011897563934326  0.6708442568778992  0.19069813191890717  1.0000
  O   O5        1.0  0.4856988787651062  0.8222701549530029  0.5465993881225586  1.0000
  O   O6        1.0  0.8858729600906372  0.6196388602256775  0.8125692009925841  1.0000
  O   O7        1.0  0.0006461143493652344  0.02385684661567211  0.06459338963031769  1.0000
  O   O8        1.0  0.24232897162437433  0.44148674607276917  0.06668879836797714  1.0000
