data_image0
_chemical_formula_structural       CaSiAlH
_chemical_formula_sum              "Ca1 Si1 Al1 H1"
_cell_length_a       4.123598629755972
_cell_length_b       4.12532895701331
_cell_length_c       4.694248199462891
_cell_angle_alpha    90.054213719864
_cell_angle_beta     89.99071344728802
_cell_angle_gamma    119.9901289832644

_space_group_name_H-M_alt    "P 1"
_space_group_IT_number       1

loop_
  _space_group_symop_operation_xyz
  'x, y, z'

loop_
  _atom_site_type_symbol
  _atom_site_label
  _atom_site_symmetry_multiplicity
  _atom_site_fract_x
  _atom_site_fract_y
  _atom_site_fract_z
  _atom_site_occupancy
  Ca  Ca1       1.0  0.10662714391946793  0.8184881806373596  0.4291882812976837  1.0000
  Si  Si1       1.0  0.7732433676719666  0.15144380927085876  0.9974727630615233  1.0000
  Al  Al1       1.0  0.44058898091316223  0.4849778711795807  0.8874463438987732  1.0000
  H   H1        1.0  0.4404641091823578  0.484790563583374  0.5145906209945679  1.0000
