data_image0
_chemical_formula_structural       AlOCaAlO3SiOSiO2
_chemical_formula_sum              "Al2 O7 Ca1 Si2"
_cell_length_a       5.206559757577598
_cell_length_b       5.206999979463511
_cell_length_c       8.06086254119873
_cell_angle_alpha    71.07841096260142
_cell_angle_beta     71.07192834082707
_cell_angle_gamma    59.82312147389572

_space_group_name_H-M_alt    "P 1"
_space_group_IT_number       1

loop_
  _space_group_symop_operation_xyz
  'x, y, z'

loop_
  _atom_site_type_symbol
  _atom_site_label
  _atom_site_symmetry_multiplicity
  _atom_site_fract_x
  _atom_site_fract_y
  _atom_site_fract_z
  _atom_site_occupancy
  Al  Al1       1.0  0.07532492280006409  0.9673057794570923  0.9628443121910095  1.0000
  O   O1        1.0  0.3841003477573395  0.626126766204834  0.9342517852783203  1.0000
  Ca  Ca1       1.0  0.8175583481788635  0.7112549543380737  0.7329638600349426  1.0000
  Al  Al2       1.0  0.5611574649810791  0.4542330205440521  0.5024434924125671  1.0000
  O   O2        1.0  0.7349998950958252  0.02704908326268196  0.9335242509841919  1.0000
  O   O3        1.0  0.9019927382469177  0.14564137160778046  0.5298512578010559  1.0000
  O   O4        1.0  0.31789475679397583  0.21083253622055054  0.23190513253211975  1.0000
  Si  Si1       1.0  0.24573445320129395  0.13839074969291687  0.4505693018436432  1.0000
  O   O5        1.0  0.13493871688842773  0.2760070562362671  0.9340707659721375  1.0000
  Si  Si2       1.0  0.3911096453666687  0.2829502522945404  0.0140310600399971  1.0000
  O   O6        1.0  0.5024011135101318  0.7945375442504883  0.5304952263832092  1.0000
  O   O7        1.0  0.2518823742866516  0.39557841420173645  0.5299198627471924  1.0000
