data_image0
_chemical_formula_structural       AlOCa2SiO3
_chemical_formula_sum              "Al1 O4 Ca2 Si1"
_cell_length_a       4.941664689758503
_cell_length_b       4.95062204091301
_cell_length_c       5.645203113555908
_cell_angle_alpha    116.02995534303815
_cell_angle_beta     115.87583801080824
_cell_angle_gamma    90.0897378721083

_space_group_name_H-M_alt    "P 1"
_space_group_IT_number       1

loop_
  _space_group_symop_operation_xyz
  'x, y, z'

loop_
  _atom_site_type_symbol
  _atom_site_label
  _atom_site_symmetry_multiplicity
  _atom_site_fract_x
  _atom_site_fract_y
  _atom_site_fract_z
  _atom_site_occupancy
  Al  Al1       1.0  0.2560444474220276  0.6952774524688721  0.05681006610393524  1.0000
  O   O1        1.0  0.5370339155197144  0.07872706651687622  0.31011730432510376  1.0000
  Ca  Ca1       1.0  0.7554575800895691  0.1940741091966629  0.05773977190256119  1.0000
  Ca  Ca2       1.0  0.005075335502624512  0.9442620277404786  0.5567402839660645  1.0000
  Si  Si1       1.0  0.5064895153045654  0.4454721510410309  0.5573427677154541  1.0000
  O   O2        1.0  0.2292409986257553  0.5659063458442688  0.31013602018356323  1.0000
  O   O3        1.0  0.8754839301109314  0.7234769463539125  0.8028225898742676  1.0000
  O   O4        1.0  0.38533052802085876  0.4131213426589966  0.8045124411582947  1.0000
