data_image0
_chemical_formula_structural       AlCa2OSiO3
_chemical_formula_sum              "Al1 Ca2 O4 Si1"
_cell_length_a       3.38273038945237
_cell_length_b       3.3812226629794138
_cell_length_c       9.86072063446045
_cell_angle_alpha    89.95315423967314
_cell_angle_beta     89.88904608297031
_cell_angle_gamma    90.00074016486991

_space_group_name_H-M_alt    "P 1"
_space_group_IT_number       1

loop_
  _space_group_symop_operation_xyz
  'x, y, z'

loop_
  _atom_site_type_symbol
  _atom_site_label
  _atom_site_symmetry_multiplicity
  _atom_site_fract_x
  _atom_site_fract_y
  _atom_site_fract_z
  _atom_site_occupancy
  Al  Al1       1.0  0.3840545415878296  0.3330053389072419  0.5737290382385254  1.0000
  Ca  Ca1       1.0  0.8857145309448242  0.834847092628479  0.3244073688983917  1.0000
  Ca  Ca2       1.0  0.38518550992012024  0.33428937196731573  0.03678097575902939  1.0000
  O   O1        1.0  0.8849277496337891  0.333961695432663  0.6489846110343933  1.0000
  Si  Si1       1.0  0.8841546773910522  0.8335012793540956  0.7555102705955505  1.0000
  O   O2        1.0  0.8860814571380615  0.8351916074752809  0.10414538532495499  1.0000
  O   O3        1.0  0.38537490367889404  0.3347179591655732  0.38957634568214417  1.0000
  O   O4        1.0  0.3844687044620514  0.8340999484062196  0.6487780213356018  1.0000
