data_image0
_chemical_formula_structural       MgSi2CaMgOSiO9
_chemical_formula_sum              "Mg2 Si3 Ca1 O10"
_cell_length_a       6.070711518491286
_cell_length_b       5.6380412554980275
_cell_length_c       6.587118148803711
_cell_angle_alpha    102.19238196652171
_cell_angle_beta     107.506117495702
_cell_angle_gamma    103.31874319680273

_space_group_name_H-M_alt    "P 1"
_space_group_IT_number       1

loop_
  _space_group_symop_operation_xyz
  'x, y, z'

loop_
  _atom_site_type_symbol
  _atom_site_label
  _atom_site_symmetry_multiplicity
  _atom_site_fract_x
  _atom_site_fract_y
  _atom_site_fract_z
  _atom_site_occupancy
  Mg  Mg1       1.0  0.7428193092346191  0.12455958873033524  0.8556317090988159  1.0000
  Si  Si1       1.0  0.19056794047355652  0.8976417183876038  0.09564795345067974  1.0000
  Si  Si2       1.0  0.7266235947608948  0.29172980785369873  0.3597297966480255  1.0000
  Ca  Ca1       1.0  0.29845622181892395  0.5185924768447876  0.3571631908416748  1.0000
  Mg  Mg2       1.0  0.014486847445368767  0.9345836639404297  0.558430552482605  1.0000
  O   O1        1.0  0.09899411350488663  0.8325170874595642  0.2889581322669983  1.0000
  Si  Si3       1.0  0.4208011031150818  0.5815096497535706  0.8452139496803284  1.0000
  O   O2        1.0  0.45753270387649536  0.8008792996406555  0.7301901578903198  1.0000
  O   O3        1.0  0.7937747240066528  0.15844674408435822  0.5602312684059143  1.0000
  O   O4        1.0  0.43017175793647766  0.16062264144420624  0.21269826591014862  1.0000
  O   O5        1.0  0.7475759387016296  0.5901687741279602  0.4570436477661133  1.0000
  O   O6        1.0  0.6258737444877625  0.44893637299537664  0.9164409637451172  1.0000
  O   O7        1.0  0.018312618136405945  0.9498474597930908  0.880821704864502  1.0000
  O   O8        1.0  0.26102113723754883  0.30489301681518555  0.6488463878631592  1.0000
  O   O9        1.0  0.2926534116268158  0.645512044429779  0.02865799516439438  1.0000
  O   O10       1.0  0.8842633366584778  0.25005272030830383  0.20238107442855838  1.0000
