data_image0
_chemical_formula_structural       CaOMgOSiCaO4
_chemical_formula_sum              "Ca2 O6 Mg1 Si1"
_cell_length_a       3.8397981660459886
_cell_length_b       5.368313648234004
_cell_length_c       5.368300437927246
_cell_angle_alpha    89.97973733252621
_cell_angle_beta     89.98186152219763
_cell_angle_gamma    89.99162186289067

_space_group_name_H-M_alt    "P 1"
_space_group_IT_number       1

loop_
  _space_group_symop_operation_xyz
  'x, y, z'

loop_
  _atom_site_type_symbol
  _atom_site_label
  _atom_site_symmetry_multiplicity
  _atom_site_fract_x
  _atom_site_fract_y
  _atom_site_fract_z
  _atom_site_occupancy
  Ca  Ca1       1.0  0.35781660676002497  0.035795070230960846  0.9559372067451477  1.0000
  O   O1        1.0  0.8586355447769164  0.7652282118797303  0.72773677110672  1.0000
  Mg  Mg1       1.0  0.8585175871849059  0.03529871255159378  0.4560665488243103  1.0000
  O   O2        1.0  0.8589658737182616  0.7648790478706361  0.18574805557727814  1.0000
  Si  Si1       1.0  0.858535349369049  0.535143256187439  0.9560430645942688  1.0000
  Ca  Ca2       1.0  0.35817095637321467  0.5351682901382446  0.45667600631713867  1.0000
  O   O3        1.0  0.3586789965629577  0.035921934992074966  0.4562472701072693  1.0000
  O   O4        1.0  0.8588503003120421  0.3059117794036865  0.1858028918504715  1.0000
  O   O5        1.0  0.35890367627143854  0.5349807739257812  0.9559999704360962  1.0000
  O   O6        1.0  0.8589647412300109  0.30553290247917175  0.7270750999450684  1.0000
