data_image0
_chemical_formula_structural       CaMgCaSiOCaMgOCaO2Si
_chemical_formula_sum              "Ca4 Mg2 Si2 O4"
_cell_length_a       3.919484051879954
_cell_length_b       3.9194420708754167
_cell_length_c       13.640242576599121
_cell_angle_alpha    90.02492586581872
_cell_angle_beta     89.95255318129927
_cell_angle_gamma    90.01315061952613

_space_group_name_H-M_alt    "P 1"
_space_group_IT_number       1

loop_
  _space_group_symop_operation_xyz
  'x, y, z'

loop_
  _atom_site_type_symbol
  _atom_site_label
  _atom_site_symmetry_multiplicity
  _atom_site_fract_x
  _atom_site_fract_y
  _atom_site_fract_z
  _atom_site_occupancy
  Ca  Ca1       1.0  0.5343437790870667  0.6506054401397705  0.4286722838878631  1.0000
  Mg  Mg1       1.0  0.03551735728979111  0.1503639817237854  0.8187994956970215  1.0000
  Ca  Ca2       1.0  0.5349384546279907  0.650609016418457  0.9292390346527098  1.0000
  Si  Si1       1.0  0.03451552987098694  0.1505948007106781  0.06985882669687271  1.0000
  O   O1        1.0  0.5348389148712158  0.15080089867115018  0.31976190209388733  1.0000
  Ca  Ca3       1.0  0.5357268452644348  0.6507429480552672  0.7096744775772095  1.0000
  Mg  Mg2       1.0  0.034499093890190125  0.15053842961788177  0.31965386867523193  1.0000
  O   O2        1.0  0.03447254002094269  0.6507617831230162  0.3194272518157959  1.0000
  Ca  Ca4       1.0  0.5340569019317627  0.6507397890090941  0.20997701585292816  1.0000
  O   O3        1.0  0.5351600050926208  0.15078352391719815  0.8191685080528259  1.0000
  O   O4        1.0  0.03506767004728317  0.6508331894874572  0.8193803429603577  1.0000
  Si  Si2       1.0  0.034753479063510895  0.15032537281513214  0.5692723989486694  1.0000
