data_image0
_chemical_formula_structural       O4SiOMgOCa
_chemical_formula_sum              "O6 Si1 Mg1 Ca1"
_cell_length_a       4.8834228786392515
_cell_length_b       5.139344261363471
_cell_length_c       5.137348175048828
_cell_angle_alpha    119.91871159639793
_cell_angle_beta     90.00603356150289
_cell_angle_gamma    90.06444533926653

_space_group_name_H-M_alt    "P 1"
_space_group_IT_number       1

loop_
  _space_group_symop_operation_xyz
  'x, y, z'

loop_
  _atom_site_type_symbol
  _atom_site_label
  _atom_site_symmetry_multiplicity
  _atom_site_fract_x
  _atom_site_fract_y
  _atom_site_fract_z
  _atom_site_occupancy
  O   O1        1.0  0.6103280782699585  0.33231398463249207  0.5891964435577393  1.0000
  O   O2        1.0  0.021465981379151344  0.9042180776596069  0.16124868392944336  1.0000
  O   O3        1.0  0.6127618551254272  0.9040391445159911  0.8916285037994385  1.0000
  O   O4        1.0  0.6117123961448669  0.5996082425117492  0.1610596477985382  1.0000
  Si  Si1       1.0  0.816889762878418  0.6115427613258362  0.880317211151123  1.0000
  O   O5        1.0  0.023218616843223572  0.5995345115661621  0.5888932943344116  1.0000
  Mg  Mg1       1.0  0.8169626593589783  0.2784109711647033  0.21345631778240204  1.0000
  O   O6        1.0  0.02102973684668541  0.3318478763103485  0.8924551606178284  1.0000
  Ca  Ca1       1.0  0.3169212341308594  0.9452767372131348  0.5475447177886964  1.0000
