data_image0
_chemical_formula_structural       MgSiMg2Ca2SiMgCaOSiO
_chemical_formula_sum              "Mg4 Si3 Ca3 O2"
_cell_length_a       4.328929576071505
_cell_length_b       4.584166539403656
_cell_length_c       11.157959938049316
_cell_angle_alpha    101.95447344416687
_cell_angle_beta     90.0727508494216
_cell_angle_gamma    89.99229805049133

_space_group_name_H-M_alt    "P 1"
_space_group_IT_number       1

loop_
  _space_group_symop_operation_xyz
  'x, y, z'

loop_
  _atom_site_type_symbol
  _atom_site_label
  _atom_site_symmetry_multiplicity
  _atom_site_fract_x
  _atom_site_fract_y
  _atom_site_fract_z
  _atom_site_occupancy
  Mg  Mg1       1.0  0.22151213884353638  0.8565061092376709  0.4531831741333008  1.0000
  Si  Si1       1.0  0.7220622897148132  0.5582613945007324  0.8545632362365723  1.0000
  Mg  Mg2       1.0  0.221149280667305  0.053608451038599014  0.8487071394920349  1.0000
  Mg  Mg3       1.0  0.7209899425506592  0.7684142589569092  0.277556836605072  1.0000
  Ca  Ca1       1.0  0.22094134986400604  0.25743338465690613  0.2541393041610718  1.0000
  Ca  Ca2       1.0  0.2213323414325714  0.6491554975509644  0.038397178053855896  1.0000
  Si  Si2       1.0  0.7211613059043884  0.3555087745189667  0.45083490014076233  1.0000
  Mg  Mg4       1.0  0.7219437956809998  0.9512903094291688  0.641484797000885  1.0000
  Ca  Ca3       1.0  0.22188809514045715  0.4562433063983918  0.651469349861145  1.0000
  O   O1        1.0  0.22113607823848724  0.7581967711448669  0.25640958547592163  1.0000
  Si  Si3       1.0  0.7205517888069153  0.13628368079662323  0.013013804331421854  1.0000
  O   O2        1.0  0.2214166224002838  0.9549366831779479  0.6506568193435669  1.0000
